2022-03-04T15:43:48,445  INFO Gbl:63 JVM: 17.0.1; Oracle Corporation; mixed mode, sharing; 64-bit
2022-03-04T15:43:48,446  INFO Gbl:67 OS: Mac OS X; 11.6; x86_64
2022-03-04T15:43:48,446  INFO Gbl:70 CPU cores: 8
2022-03-04T15:43:48,450  INFO Gbl:71 max. Memory: 4096.0MB (4294967296B)
2022-03-04T15:43:48,450  INFO Gbl:109 MATSim-Build: r39825bc6085a744848224c8d615c2dec92341cf1 (2021-09-17 10:13:01)
2022-03-04T15:43:48,454  INFO ControlerListenerManagerImpl:107 calling notifyStartup on org.matsim.guice.DependencyGraphControlerListener
2022-03-04T15:43:48,456  INFO MemoryObserver:41 used RAM: 780 MB  free: 323 MB  total: 1104 MB
2022-03-04T15:43:48,600  INFO ControlerListenerManagerImpl:107 calling notifyStartup on org.matsim.counts.CountsControlerListener
2022-03-04T15:43:48,600  INFO ControlerListenerManagerImpl:107 calling notifyStartup on org.matsim.analysis.ModeStatsControlerListener
2022-03-04T15:43:48,601  INFO ControlerListenerManagerImpl:107 calling notifyStartup on org.matsim.analysis.ScoreStatsControlerListener
2022-03-04T15:43:48,601  INFO ControlerListenerManagerImpl:110 all ControlerStartupListeners called.
2022-03-04T15:43:48,602  INFO ControlerUtils:79 config dump before iterations start
2022-03-04T15:43:48,630  INFO ControlerUtils:83 

<?xml version="1.0" encoding="UTF-8"?>
<!DOCTYPE config SYSTEM "http://www.matsim.org/files/dtd/config_v2.dtd">
<config>
	<module name="JDEQSim" >
		<param name="carSize" value="7.5" />
		<param name="endTime" value="undefined" />
		<param name="flowCapacityFactor" value="1.0" />
		<param name="gapTravelSpeed" value="15.0" />
		<param name="minimumInFlowCapacity" value="1800.0" />
		<param name="squeezeTime" value="1800.0" />
		<param name="storageCapacityFactor" value="1.0" />
	</module>
	<module name="TimeAllocationMutator" >
		<!-- Default:true; Defines whether time mutation changes an activity's duration. -->
		<param name="mutationAffectsDuration" value="true" />
		<!-- Default:1800.0; Defines how many seconds a time mutation can maximally shift a time. -->
		<param name="mutationRange" value="1800.0" />
	</module>
	<module name="changeMode" >
		<!-- Defines whether car availability is considered be considered or not. An agent has no car only if it has no license, or never access to a car. Default: true -->
		<param name="ignoreCarAvailability" value="true" />
		<!-- Defines the mode switch behavior. Possible values [fromAllModesToSpecifiedModes, fromSpecifiedModesToSpecifiedModes] Default: fromSpecifiedModesToSpecifiedModes. -->
		<param name="modeSwitchBehavior" value="fromSpecifiedModesToSpecifiedModes" />
		<!-- Defines all the modes available, including chain-based modes, seperated by commas -->
		<param name="modes" value="car,pt" />
	</module>
	<module name="controler" >
		<!-- Compression algorithm to use when writing out data to files. Possible values: [none, gzip, lz4, zst] -->
		<param name="compressionType" value="gzip" />
		<!-- Sets whether graphs showing some analyses should automatically be generated during the simulation. The generation of graphs usually takes a small amount of time that does not have any weight in big simulations, but add a significant overhead in smaller runs or in test cases where the graphical output is not even requested. -->
		<param name="createGraphs" value="true" />
		<!-- true if at the end of a run, plans, network, config etc should be dumped to a file -->
		<param name="dumpDataAtEnd" value="true" />
		<!-- Default=false. If enabled, the router takes travel times needed for turning moves into account. Cannot be used if the (Fast)AStarLandmarks routing or TravelTimeCalculator.separateModes is enabled. -->
		<param name="enableLinkToLinkRouting" value="false" />
		<!-- Default=xml; Specifies the file format for writing events. Currently supported: [xml, pb, json]
		Multiple values can be specified separated by commas (','). -->
		<param name="eventsFileFormat" value="xml" />
		<!-- Default=0. First Iteration of a simulation. -->
		<param name="firstIteration" value="0" />
		<!-- Default=1000. Last Iteration of a simulation. -->
		<param name="lastIteration" value="0" />
		<!-- Defines which mobility simulation will be used. Currently supported: qsim JDEQSim hermes 
		Depending on the chosen mobsim, you'll have to add additional config modules to configure the corresponding mobsim.
		For 'qsim', add a module 'qsim' to the config. -->
		<param name="mobsim" value="qsim" />
		<param name="outputDirectory" value="output/Chicago190701_scooter3333" />
		<!-- Possible values: failIfDirectoryExists, overwriteExistingFiles, deleteDirectoryIfExists -->
		<param name="overwriteFiles" value="deleteDirectoryIfExists" />
		<!-- The type of routing (least cost path) algorithm used, may have the values: [Dijkstra, AStarLandmarks, FastDijkstra, FastAStarLandmarks, SpeedyALT] -->
		<param name="routingAlgorithmType" value="AStarLandmarks" />
		<!-- An identifier for the current run which is used as prefix for output files and mentioned in output xml files etc. -->
		<param name="runId" value="null" />
		<!-- Comma-separated list of visualizer output file formats. `transims', `googleearth', and `otfvis'. -->
		<param name="snapshotFormat" value="" />
		<!-- iterationNumber % writeEventsInterval == 0 defines in which iterations events are written to a file. `0' disables events writing completely. -->
		<param name="writeEventsInterval" value="10" />
		<!-- iterationNumber % writePlansInterval == 0 defines (hopefully) in which iterations plans are written to a file. `0' disables plans writing completely.  Some plans in early iterations are always written -->
		<param name="writePlansInterval" value="10" />
		<!-- iterationNumber % writeSnapshotsInterval == 0 defines in which iterations snapshots are written to a file. `0' disables snapshots writing completely -->
		<param name="writeSnapshotsInterval" value="1" />
		<!-- iterationNumber % writeEventsInterval == 0 defines in which iterations trips CSV are written to a file. `0' disables trips writing completely. -->
		<param name="writeTripsInterval" value="10" />
	</module>
	<module name="counts" >
		<!-- Transport modes that will be respected for the counts comparison. 'car' is default, which includes also bussed from the pt simulation module. Use this parameter in combination with 'filterModes' = true! -->
		<param name="analyzedModes" value="car" />
		<!-- Specifies over how many iterations the link volumes should be averaged that are used for the counts comparison. Use 1 or 0 to only use the link volumes of a single iteration. This values cannot be larger than the value specified for writeCountsInterval -->
		<param name="averageCountsOverIterations" value="5" />
		<!-- factor by which to re-scale the simulated values.  necessary when simulation runs with something different from 100%.  needs to be adapted manually -->
		<param name="countsScaleFactor" value="1.0" />
		<!-- distance to distanceFilterCenterNode to include counting stations. The unit of distance is the Euclidean distance implied by the coordinate system -->
		<param name="distanceFilter" value="null" />
		<!-- node id for center node of distance filter -->
		<param name="distanceFilterCenterNode" value="null" />
		<!-- If true, link counts from legs performed on modes not included in the 'analyzedModes' parameter are ignored. -->
		<param name="filterModes" value="false" />
		<!-- The Coordinates Reference System in which the coordinates are expressed in the input file. At import, the coordinates will be converted to the coordinate system defined in "global", and willbe converted back at export. If not specified, no conversion happens. -->
		<param name="inputCRS" value="null" />
		<!-- input file name to counts package -->
		<param name="inputCountsFile" value="null" />
		<!-- possible values: `html', `kml', `txt', `all' -->
		<param name="outputformat" value="txt" />
		<!-- Specifies how often the counts comparison should be calculated and written. -->
		<param name="writeCountsInterval" value="10" />
	</module>
	<module name="dvrp" >
		<param name="initialTravelTimesFile" value="null" />
		<!-- Mode of which the network will be used for throwing events and hence calculating travel times. Default is car. -->
		<param name="mobsimMode" value="car" />
		<!-- Set of modes of which the network will be used for DVRP travel time estimation and routing DVRP vehicles. Each specific DVRP mode may use a subnetwork of this network for routing vehicles (e.g. DRT buses travelling only along a specified links or serving a limited area). Default is "car" (i.e. single-element set of modes), i.e. the car network is used. Empty value "" (i.e. empty set of modes) means no network filtering, i.e. the original scenario.network is used -->
		<param name="networkModes" value="car" />
		<!-- Used for OFFLINE estimation of travel times for VrpOptimizer by means of the exponential moving average. The weighting decrease, alpha, must be in (0,1]. We suggest small values of alpha, e.g. 0.05. The averaging starts from the initial travel time estimates. If not provided, the free-speed TTs is used as the initial estimates -->
		<param name="travelTimeEstimationAlpha" value="0.05" />
		<!-- Used for ONLINE estimation of travel times for VrpOptimizer by combining WithinDayTravelTime and DvrpOfflineTravelTimeEstimator. The beta coefficient is provided in seconds and should be either 0 (no online estimation) or positive (mixed online-offline estimation). For 'beta = 0', only the offline estimate is used: 'onlineTT(t) = offlineTT(t)', where 'offlineTT(t)' in the offline estimate for TT at time 't', For 'beta > 0', estimating future TTs at time 't', uses the currently observed TT to correct the offline estimates is made: where 'currentTT' is the currently observed TT, and 'correction = min(1, max(0, 1 - (time - currentTime) / beta))' The rule is that correction decreases linearly from 1 (when 'time = currentTime') to 0 (when 'time = currentTime + beta' For 'time > currentTime + beta' correction is 0, whereas if 'time < currentTime' it is 1. If beta is sufficiently large, 'beta >> 0', only the currently observed TT is used. -->
		<param name="travelTimeEstimationBeta" value="0.0" />
		<parameterset type="travelTimeMatrix" >
			<!-- size of square cells (meters) used for computing travel time matrix. Default value is 200 m -->
			<param name="cellSize" value="200" />
		</parameterset>
	</module>
	<module name="facilities" >
		<!-- This defines how facilities should be created. Possible values: none fromFile setInScenario onePerActivityLinkInPlansFile onePerActivityLinkInPlansFileExceptWhenCoordinatesAreGiven onePerActivityLocationInPlansFile  -->
		<param name="facilitiesSource" value="none" />
		<!-- A prefix to be used for auto-generated IDs. -->
		<param name="idPrefix" value="f_auto_" />
		<!-- The Coordinates Reference System in which the coordinates are expressed in the input file. At import, the coordinates will be converted to the coordinate system defined in "global", and willbe converted back at export. If not specified, no conversion happens. -->
		<param name="inputCRS" value="null" />
		<param name="inputFacilitiesFile" value="null" />
		<param name="inputFacilityAttributesFile" value="null" />
		<param name="insistingOnUsingDeprecatedFacilitiesAttributeFile" value="false" />
	</module>
	<module name="global" >
		<param name="coordinateSystem" value="Atlantis" />
		<param name="defaultDelimiter" value=";" />
		<param name="insistingOnDeprecatedConfigVersion" value="true" />
		<!-- "global" number of threads.  This number is used, e.g., for replanning, but NOT in QSim.  This can typically be set to as many cores as you have available, or possibly even slightly more. -->
		<param name="numberOfThreads" value="2" />
		<param name="randomSeed" value="4711" />
	</module>
	<module name="hermes" >
		<!-- Simulation End Time -->
		<param name="endTime" value="30:00:00" />
		<param name="flowCapacityFactor" value="1.0" />
		<param name="mainMode" value="car" />
		<param name="storageCapacityFactor" value="1.0" />
		<!-- time in seconds.  Time after which the frontmost vehicle on a link is called `stuck' if it does not move. Set to Integer.MAX_VALUE to disable this behavior -->
		<param name="stuckTime" value="10" />
		<!-- treats PT as deterministic. PT vehicles will run with a steady speed. Should be used with separate network layers for PT and other network modes. -->
		<param name="useDeterministicPt" value="false" />
	</module>
	<module name="households" >
		<param name="inputFile" value="null" />
		<param name="inputHouseholdAttributesFile" value="null" />
		<param name="insistingOnUsingDeprecatedHouseholdsAttributeFile" value="false" />
	</module>
	<module name="linkStats" >
		<!-- Specifies over how many iterations the link volumes should be averaged that are used for the link statistics. Use 1 or 0 to only use the link volumes of a single iteration. This values cannot be larger than the value specified for writeLinkStatsInterval -->
		<param name="averageLinkStatsOverIterations" value="5" />
		<!-- Specifies how often the link stats should be calculated and written. Use 0 to disable the generation of link stats. -->
		<param name="writeLinkStatsInterval" value="10" />
	</module>
	<module name="multiModeTaxi" >
		<parameterset type="taxi" >
			<!-- Specifies whether the simulation should interrupt if not all requests were performed when an interation ends. Otherwise, a warning is given. True by default. -->
			<param name="breakIfNotAllRequestsServed" value="true" />
			<!-- If true, the startLink is changed to last link in the current schedule, so the taxi starts the next day at the link where it stopped operating the day before. False by default. -->
			<param name="changeStartLinkToLastLinkInSchedule" value="false" />
			<!-- If false, the drop-off location remains unknown to the optimizer and scheduler until the end of pickup. False by default. -->
			<param name="destinationKnown" value="false" />
			<!-- If true, detailed hourly taxi stats are dumped after each iteration. False by default. -->
			<param name="detailedStats" value="true" />
			<!-- Dropoff duration. Must be positive. -->
			<param name="dropoffDuration" value="60.0" />
			<!-- Mode which will be handled by PassengerEngine and VrpOptimizer (passengers'/customers' perspective) -->
			<param name="mode" value="taxi" />
			<!-- Number of threads used for parallel computation of paths (occupied drive tasks). 4-6 threads is usually enough. It's recommended to specify a higher number than that if possible - of course, threads will probably be not 100% busy. Default value is the number of cores available to JVM -->
			<param name="numberOfThreads" value="8" />
			<!-- If true, vehicles are (GPS-like) monitored while moving. This helps in getting more accurate estimates on the time of arrival. Online tracking is necessary for vehicle diversion. False by default. -->
			<param name="onlineVehicleTracker" value="false" />
			<!-- Pickup duration. Must be positive. -->
			<param name="pickupDuration" value="120.0" />
			<!-- An XML file specifying the taxi fleet. The file format according to dvrp_vehicles_v1.dtd. If not provided, the vehicle specifications will be created from matsim vehicle file or provided via a custom binding. See FleetModule. -->
			<param name="taxisFile" value="Chicago_vehicles.xml" />
			<!-- If true, writes time profiles of vehicle statuses (i.e. current task type) and the number of unplanned requests are written to a text file (taxi_status_time_profiles) and saved as plots. False by default. -->
			<param name="timeProfiles" value="true" />
			<!-- Limit the operation of vehicles to links (of the 'dvrp_routing' network) with 'allowedModes' containing this 'mode'. For backward compatibility, the value is set to false by default -- this means that the vehicles are allowed to operate on all links of the 'dvrp_routing' network. The 'dvrp_routing' is defined by DvrpConfigGroup.networkModes) -->
			<param name="useModeFilteredSubnetwork" value="false" />
			<!-- If true, vehicles can be diverted during empty trips. Requires online tracking. False by default. -->
			<param name="vehicleDiversion" value="false" />
			<parameterset type="AssignmentTaxiOptimizer" >
				<!-- Specifies the formula used to calculate assgnment cost. See comments in TaxiToRequestAssignmentCostProvider. The default mode is ARRIVAL_TIME (used fro simulating taxis in Berlin). -->
				<param name="mode" value="ARRIVAL_TIME" />
				<!-- Limits the number of open requests considered in the cost matrix calculation to 'nearestRequestsLimit' nearest to a given vehicle (straight line). Used to speed up computations. Depending on the size of fleet, values 20 to 40 make a good trade-off between computational speed and quality of results. To turn off this feature - specify a sufficiently big number (not recommended). The default value is 40 (used for simulating taxis in Berlin). -->
				<param name="nearestRequestsLimit" value="40" />
				<!-- Limits the number of available vehicles considered in the cost matrix calculation to 'nearestRequestsLimit' nearest to a given request (straight line). Used to speed up computations. Depending on the size of fleet, values 20 to 40 make a good trade-off between computational speed and quality of results. To turn off this feature - specify a sufficiently big number (not recommended). The default value is 40 (used for simulating taxis in Berlin). -->
				<param name="nearestVehiclesLimit" value="40" />
				<!-- Specifies the cost for vehicle-request pairs not included in the matrix calculation. Should be high enough to prevent choosing such assignments. The default value is 48 * 3600 seconds (2 days) (used for simulating taxis in Berlin). -->
				<param name="nullPathCost" value="172800.0" />
				<!-- Specifies how often the reoptimization algorithm is executed. Must be a positive integer value. Smaller values mean lower reaction time. However, algorithms that find more than 1 taxi-request matching in each run, such as AssignmentTaxiOptimizer, may produce better results if new requests are buffered over a longer period, e.g. 10 or 30 seconds. Therefore, the default value is algorithm dependent. -->
				<param name="reoptimizationTimeStep" value="10" />
				<!-- Vehicle planning horizon in the case of oversupply. Only vehicles available within the time horizon are considered in the assignment procedure. The value should not be smaller than 'reoptimizationTimeStep'. The default value is 120 seconds (used for simulating taxis in Berlin). Discussion: M. Maciejewski, J. Bischoff, K. Nagel: An assignment-based approach to efficient real-time city-scale taxi dispatching. IEEE Intelligent Systems, 2016. -->
				<param name="vehPlanningHorizonOversupply" value="120.0" />
				<!-- Vehicle planning horizon in the case of undersupply. Only vehicles available within the time horizon are considered in the assignment procedure. The value should not be smaller than 'reoptimizationTimeStep'. The default value is 30 seconds (used for simulating taxis in Berlin). Discussion: M. Maciejewski, J. Bischoff, K. Nagel: An assignment-based approach to efficient real-time city-scale taxi dispatching. IEEE Intelligent Systems, 2016. -->
				<param name="vehPlanningHorizonUndersupply" value="30.0" />
			</parameterset>
			<parameterset type="taxifare" >
				<!-- Basefare per trip (positive or zero value) -->
				<param name="basefare" value="0.0" />
				<!-- Daily subscription fee (positive or zero value) -->
				<param name="dailySubscriptionFee" value="0.0" />
				<!-- taxi fare per meter (positive or zero value) -->
				<param name="distanceFare_m" value="0.0" />
				<!-- Minimum fare per trip (paid instead of the sum of base, time and distance fare if that sum would be lower than the minimum fare, positive or zero value). -->
				<param name="minFarePerTrip" value="0.0" />
				<!-- taxi fare per hour (positive or zero value) -->
				<param name="timeFare_h" value="0.0" />
			</parameterset>
		</parameterset>
	</module>
	<module name="network" >
		<!-- The Coordinates Reference System in which the coordinates are expressed in the input file. At import, the coordinates will be converted to the coordinate system defined in "global", and willbe converted back at export. If not specified, no conversion happens. -->
		<param name="inputCRS" value="null" />
		<param name="inputChangeEventsFile" value="null" />
		<param name="inputNetworkFile" value="Chicago_network.xml" />
		<param name="laneDefinitionsFile" value="null" />
		<param name="timeVariantNetwork" value="false" />
	</module>
	<module name="otfvis" >
		<!-- The (initial) size of the agents.  Only a range of numbers is allowed, otherwise otfvis aborts rather ungracefully, or displays no agents at all. -->
		<param name="agentSize" value="120.0" />
		<!-- coloring scheme for otfvis.  Currently (2012) allowed values: standard bvg bvg2 byId gtfs taxicab infection -->
		<param name="coloringScheme" value="taxicab" />
		<!-- If non-moving items (e.g. agents at activities, at bus stops, etc.) should be showed.  May affect all non-moving items. -->
		<param name="drawNonMovingItems" value="true" />
		<param name="drawTransitFacilities" value="true" />
		<param name="drawTransitFacilityIds" value="true" />
		<param name="leftMouseFunc" value="Zoom" />
		<!-- The (initial) width of the links of the network. Use positive floating point values. -->
		<param name="linkWidth" value="30.0" />
		<!-- Link width is proportional to `numberOfLanes' or to `capacity'. -->
		<param name="linkwidthIsProportionalTo" value="numberOfLanes" />
		<!-- URL to get WMS tiles from. For a local GeoServer instance, use http://localhost:8080/geoserver/wms?service=WMS& -->
		<param name="mapBaseURL" value="" />
		<!-- The WMS layer to display. For GeoServer and a layer called clipped in workspace mz, use mz:clipped -->
		<param name="mapLayer" value="" />
		<!-- Render everything on top of map tiles. Default: From tiles.openstreetmap.org -->
		<param name="mapOverlayMode" value="false" />
		<param name="middleMouseFunc" value="Pan" />
		<param name="rightMouseFunc" value="Select" />
		<param name="showTeleportation" value="false" />
	</module>
	<module name="parallelEventHandling" >
		<!-- Estimated number of events during mobsim run. An optional optimization hint for the framework. -->
		<param name="estimatedNumberOfEvents" value="null" />
		<!-- Size of the events Queue. Increase for very large scenarios -->
		<param name="eventsQueueSize" value="131072" />
		<!-- Number of threads for parallel events handler. _null_ means the framework decides by itself. 0 is currently not possible. -->
		<param name="numberOfThreads" value="null" />
		<!-- If enabled, each event handler is assigned to its own thread. Note that enabling this feature disabled the numberOfThreads option! This feature is still experimental! -->
		<param name="oneThreadPerHandler" value="false" />
		<!-- If enabled, it is ensured that all events that are created during a time step of the mobility simulation are processed before the next time step is simulated. E.g. neccessary when within-day replanning is used. -->
		<param name="synchronizeOnSimSteps" value="true" />
	</module>
	<module name="planCalcScore" >
		<!-- logit model scale parameter. default: 1.  Has name and default value for historical reasons (see Bryan Raney's phd thesis). -->
		<param name="BrainExpBeta" value="1.0" />
		<param name="PathSizeLogitBeta" value="1.0" />
		<!-- fraction of iterations at which MSA score averaging is started. The matsim theory department suggests to use this together with switching off choice set innovation (where a similar switch exists), but it has not been tested yet. -->
		<param name="fractionOfIterationsToStartScoreMSA" value="null" />
		<!-- new_score = (1-learningRate)*old_score + learningRate * score_from_mobsim.  learning rates close to zero emulate score averaging, but slow down initial convergence -->
		<param name="learningRate" value="1.0" />
		<!-- There used to be a plateau between duration=0 and duration=zeroUtilityDuration. This caused durations to evolve to zero once they were below zeroUtilityDuration, causing problems.  Only use this switch if you need to be backwards compatible with some old results.  (changed nov'13) -->
		<param name="usingOldScoringBelowZeroUtilityDuration" value="false" />
		<!-- write a plans file in each iteration directory which contains what each agent actually did, and the score it received. -->
		<param name="writeExperiencedPlans" value="false" />
		<parameterset type="scoringParameters" >
			<param name="earlyDeparture" value="-0.0" />
			<param name="lateArrival" value="-18.0" />
			<param name="marginalUtilityOfMoney" value="1.0" />
			<param name="performing" value="6.0" />
			<param name="subpopulation" value="null" />
			<param name="utilityOfLineSwitch" value="-1.0" />
			<param name="waiting" value="-0.0" />
			<param name="waitingPt" value="-6.0" />
			<parameterset type="activityParams" >
				<param name="activityType" value="car interaction" />
				<param name="closingTime" value="undefined" />
				<param name="earliestEndTime" value="undefined" />
				<param name="latestStartTime" value="undefined" />
				<param name="minimalDuration" value="undefined" />
				<param name="openingTime" value="undefined" />
				<param name="priority" value="1.0" />
				<param name="scoringThisActivityAtAll" value="false" />
				<!-- typical duration of activity.  needs to be defined and non-zero.  in sec. -->
				<param name="typicalDuration" value="undefined" />
				<!-- method to compute score at typical duration.  Options: | uniform | relative | Use uniform for backwards compatibility (all activities same score; higher proba to drop long acts). -->
				<param name="typicalDurationScoreComputation" value="relative" />
			</parameterset>
			<parameterset type="activityParams" >
				<param name="activityType" value="pt interaction" />
				<param name="closingTime" value="undefined" />
				<param name="earliestEndTime" value="undefined" />
				<param name="latestStartTime" value="undefined" />
				<param name="minimalDuration" value="undefined" />
				<param name="openingTime" value="undefined" />
				<param name="priority" value="1.0" />
				<param name="scoringThisActivityAtAll" value="false" />
				<param name="typicalDuration" value="undefined" />
				<param name="typicalDurationScoreComputation" value="relative" />
			</parameterset>
			<parameterset type="activityParams" >
				<param name="activityType" value="bike interaction" />
				<param name="closingTime" value="undefined" />
				<param name="earliestEndTime" value="undefined" />
				<param name="latestStartTime" value="undefined" />
				<param name="minimalDuration" value="undefined" />
				<param name="openingTime" value="undefined" />
				<param name="priority" value="1.0" />
				<param name="scoringThisActivityAtAll" value="false" />
				<param name="typicalDuration" value="undefined" />
				<param name="typicalDurationScoreComputation" value="relative" />
			</parameterset>
			<parameterset type="activityParams" >
				<param name="activityType" value="drt interaction" />
				<param name="closingTime" value="undefined" />
				<param name="earliestEndTime" value="undefined" />
				<param name="latestStartTime" value="undefined" />
				<param name="minimalDuration" value="undefined" />
				<param name="openingTime" value="undefined" />
				<param name="priority" value="1.0" />
				<param name="scoringThisActivityAtAll" value="false" />
				<param name="typicalDuration" value="undefined" />
				<param name="typicalDurationScoreComputation" value="relative" />
			</parameterset>
			<parameterset type="activityParams" >
				<param name="activityType" value="taxi interaction" />
				<param name="closingTime" value="undefined" />
				<param name="earliestEndTime" value="undefined" />
				<param name="latestStartTime" value="undefined" />
				<param name="minimalDuration" value="undefined" />
				<param name="openingTime" value="undefined" />
				<param name="priority" value="1.0" />
				<param name="scoringThisActivityAtAll" value="false" />
				<param name="typicalDuration" value="undefined" />
				<param name="typicalDurationScoreComputation" value="relative" />
			</parameterset>
			<parameterset type="activityParams" >
				<param name="activityType" value="other interaction" />
				<param name="closingTime" value="undefined" />
				<param name="earliestEndTime" value="undefined" />
				<param name="latestStartTime" value="undefined" />
				<param name="minimalDuration" value="undefined" />
				<param name="openingTime" value="undefined" />
				<param name="priority" value="1.0" />
				<param name="scoringThisActivityAtAll" value="false" />
				<param name="typicalDuration" value="undefined" />
				<param name="typicalDurationScoreComputation" value="relative" />
			</parameterset>
			<parameterset type="activityParams" >
				<param name="activityType" value="walk interaction" />
				<param name="closingTime" value="undefined" />
				<param name="earliestEndTime" value="undefined" />
				<param name="latestStartTime" value="undefined" />
				<param name="minimalDuration" value="undefined" />
				<param name="openingTime" value="undefined" />
				<param name="priority" value="1.0" />
				<param name="scoringThisActivityAtAll" value="false" />
				<param name="typicalDuration" value="undefined" />
				<param name="typicalDurationScoreComputation" value="relative" />
			</parameterset>
			<parameterset type="activityParams" >
				<param name="activityType" value="dummy" />
				<param name="closingTime" value="undefined" />
				<param name="earliestEndTime" value="undefined" />
				<param name="latestStartTime" value="undefined" />
				<param name="minimalDuration" value="undefined" />
				<param name="openingTime" value="undefined" />
				<param name="priority" value="1.0" />
				<param name="scoringThisActivityAtAll" value="true" />
				<param name="typicalDuration" value="24:00:00" />
				<param name="typicalDurationScoreComputation" value="relative" />
			</parameterset>
			<parameterset type="activityParams" >
				<param name="activityType" value="ride interaction" />
				<param name="closingTime" value="undefined" />
				<param name="earliestEndTime" value="undefined" />
				<param name="latestStartTime" value="undefined" />
				<param name="minimalDuration" value="undefined" />
				<param name="openingTime" value="undefined" />
				<param name="priority" value="1.0" />
				<param name="scoringThisActivityAtAll" value="false" />
				<param name="typicalDuration" value="undefined" />
				<param name="typicalDurationScoreComputation" value="relative" />
			</parameterset>
			<parameterset type="modeParams" >
				<!-- [utils] alternative-specific constant.  Normally per trip, but that is probably buggy for multi-leg trips. -->
				<param name="constant" value="0.0" />
				<!-- [unit_of_money/day] Fixed cost of mode, per day. -->
				<param name="dailyMonetaryConstant" value="0.0" />
				<!-- [utils] daily utility constant. default=0 to be backwards compatible -->
				<param name="dailyUtilityConstant" value="0.0" />
				<!-- [utils/m] utility of traveling (e.g. walking or driving) per m, normally negative.  this is on top of the time (dis)utility. -->
				<param name="marginalUtilityOfDistance_util_m" value="0.0" />
				<!-- [utils/hr] additional marginal utility of traveling.  normally negative.  this comes on top of the opportunity cost of time -->
				<param name="marginalUtilityOfTraveling_util_hr" value="-6.0" />
				<param name="mode" value="car" />
				<!-- [unit_of_money/m] conversion of distance into money. Normally negative. -->
				<param name="monetaryDistanceRate" value="0.0" />
			</parameterset>
			<parameterset type="modeParams" >
				<param name="constant" value="0.0" />
				<param name="dailyMonetaryConstant" value="0.0" />
				<param name="dailyUtilityConstant" value="0.0" />
				<param name="marginalUtilityOfDistance_util_m" value="0.0" />
				<param name="marginalUtilityOfTraveling_util_hr" value="-6.0" />
				<param name="mode" value="pt" />
				<param name="monetaryDistanceRate" value="0.0" />
			</parameterset>
			<parameterset type="modeParams" >
				<param name="constant" value="0.0" />
				<param name="dailyMonetaryConstant" value="0.0" />
				<param name="dailyUtilityConstant" value="0.0" />
				<param name="marginalUtilityOfDistance_util_m" value="0.0" />
				<param name="marginalUtilityOfTraveling_util_hr" value="-6.0" />
				<param name="mode" value="walk" />
				<param name="monetaryDistanceRate" value="0.0" />
			</parameterset>
			<parameterset type="modeParams" >
				<param name="constant" value="0.0" />
				<param name="dailyMonetaryConstant" value="0.0" />
				<param name="dailyUtilityConstant" value="0.0" />
				<param name="marginalUtilityOfDistance_util_m" value="0.0" />
				<param name="marginalUtilityOfTraveling_util_hr" value="-6.0" />
				<param name="mode" value="bike" />
				<param name="monetaryDistanceRate" value="0.0" />
			</parameterset>
			<parameterset type="modeParams" >
				<param name="constant" value="0.0" />
				<param name="dailyMonetaryConstant" value="0.0" />
				<param name="dailyUtilityConstant" value="0.0" />
				<param name="marginalUtilityOfDistance_util_m" value="0.0" />
				<param name="marginalUtilityOfTraveling_util_hr" value="-6.0" />
				<param name="mode" value="ride" />
				<param name="monetaryDistanceRate" value="0.0" />
			</parameterset>
			<parameterset type="modeParams" >
				<param name="constant" value="0.0" />
				<param name="dailyMonetaryConstant" value="0.0" />
				<param name="dailyUtilityConstant" value="0.0" />
				<param name="marginalUtilityOfDistance_util_m" value="0.0" />
				<param name="marginalUtilityOfTraveling_util_hr" value="-6.0" />
				<param name="mode" value="other" />
				<param name="monetaryDistanceRate" value="0.0" />
			</parameterset>
			<parameterset type="modeParams" >
				<param name="constant" value="0.0" />
				<param name="dailyMonetaryConstant" value="0.0" />
				<param name="dailyUtilityConstant" value="0.0" />
				<param name="marginalUtilityOfDistance_util_m" value="0.0" />
				<param name="marginalUtilityOfTraveling_util_hr" value="-6.0" />
				<param name="mode" value="taxi" />
				<param name="monetaryDistanceRate" value="0.0" />
			</parameterset>
		</parameterset>
	</module>
	<module name="plans" >
		<!-- String: minOfDurationAndEndTime tryEndTimeThenDuration endTimeOnly. Anything besides minOfDurationAndEndTime will internally use a different (simpler) version of the TimeAllocationMutator. -->
		<param name="activityDurationInterpretation" value="tryEndTimeThenDuration" />
		<!-- Possible values: reject, useMainModeIdentifier -->
		<param name="handlingOfPlansWithoutRoutingMode" value="reject" />
		<!-- The Coordinates Reference System in which the coordinates are expressed in the input file. At import, the coordinates will be converted to the coordinate system defined in "global", and willbe converted back at export. If not specified, no conversion happens. -->
		<param name="inputCRS" value="null" />
		<param name="inputPersonAttributesFile" value="null" />
		<param name="inputPlansFile" value="Chicago_plans_scooter3333.xml" />
		<param name="insistingOnUsingDeprecatedPersonAttributeFile" value="false" />
		<!-- Defines how routes are stored in memory. Currently supported: LinkNetworkRoute, CompressedNetworkRoute. -->
		<param name="networkRouteType" value="LinkNetworkRoute" />
		<!-- (not tested) will remove plan attributes that are presumably not used, such as activityStartTime. default=false. Use with Caution! -->
		<param name="removingUnnecessaryPlanAttributes" value="false" />
		<!-- Defines how departure times are interpreted in rerouting applications. If set to 'ignoreDelays', the departure time of a trip when routing along a plan will always be the nominal (plan-based) activity end time. If set to 'shiftActivityEndTimes', routing along a plan will accumulate travel times and shift activity end times if necessary -->
		<param name="tripDurationHandling" value="ignoreDelays" />
	</module>
	<module name="planscalcroute" >
		<!-- Defines how access and egress to main mode is simulated. Either of [none, accessEgressModeToLink, walkConstantTimeToLink, accessEgressModeToLinkPlusTimeConstant], Current default=none which means no access or egress trips are simulated. -->
		<param name="accessEgressType" value="none" />
		<!-- Some typical teleportation routing params are set by default, such as for walk and bike.  Setting this switch to "true" will clear them.  Note that this will also clear settings for helper modes such as for non_network_walk -->
		<param name="clearDefaultTeleportedModeParams" value="false" />
		<!-- All the modes for which the router is supposed to generate network routes (like car) -->
		<param name="networkModes" value="car" />
		<!-- strength of the randomness for the utility of money in routing under toll.  Leads to Pareto-optimal route with randomly drawn money-vs-other-attributes tradeoff. Technically the width parameter of a log-normal distribution. 3.0 seems to be a good value.  -->
		<param name="routingRandomness" value="3.0" />
		<parameterset type="teleportedModeParameters" >
			<param name="beelineDistanceFactor" value="1.3" />
			<param name="mode" value="bike" />
			<!-- Free-speed factor for a teleported mode. Travel time = teleportedModeFreespeedFactor * <freespeed car travel time>. Insert a line like this for every such mode. Please do not set teleportedModeFreespeedFactor as well as teleportedModeSpeed for the same mode, but if you do, +teleportedModeFreespeedFactor wins over teleportedModeSpeed. -->
			<param name="teleportedModeFreespeedFactor" value="null" />
			<!-- Speed for a teleported mode. Travel time = (<beeline distance> * beelineDistanceFactor) / teleportedModeSpeed. Insert a line like this for every such mode. -->
			<param name="teleportedModeSpeed" value="4.166666666666667" />
		</parameterset>
		<parameterset type="teleportedModeParameters" >
			<param name="beelineDistanceFactor" value="1.3" />
			<param name="mode" value="walk" />
			<param name="teleportedModeFreespeedFactor" value="null" />
			<param name="teleportedModeSpeed" value="0.8333333333333333" />
		</parameterset>
		<parameterset type="teleportedModeParameters" >
			<param name="beelineDistanceFactor" value="1.3" />
			<param name="mode" value="non_network_walk" />
			<param name="teleportedModeFreespeedFactor" value="null" />
			<param name="teleportedModeSpeed" value="0.8333333333333333" />
		</parameterset>
		<parameterset type="teleportedModeParameters" >
			<param name="beelineDistanceFactor" value="1.3" />
			<param name="mode" value="ride" />
			<param name="teleportedModeFreespeedFactor" value="1.0" />
			<param name="teleportedModeSpeed" value="null" />
		</parameterset>
		<parameterset type="teleportedModeParameters" >
			<param name="beelineDistanceFactor" value="1.3" />
			<param name="mode" value="pt" />
			<param name="teleportedModeFreespeedFactor" value="2.0" />
			<param name="teleportedModeSpeed" value="null" />
		</parameterset>
	</module>
	<module name="ptCounts" >
		<!-- factor by which to re-scale the simulated values.  necessary when simulation runs with something different from 100%.  needs to be adapted manually -->
		<param name="countsScaleFactor" value="1.0" />
		<!-- distance to distanceFilterCenterNode to include counting stations. The unit of distance is the Euclidean distance implied by the coordinate system -->
		<param name="distanceFilter" value="null" />
		<!-- node id for center node of distance filter -->
		<param name="distanceFilterCenterNode" value="null" />
		<!-- input file containing the alighting (getting off) counts for pt -->
		<param name="inputAlightCountsFile" value="null" />
		<!-- input file containing the boarding (getting on) counts for pt -->
		<param name="inputBoardCountsFile" value="null" />
		<!-- input file containing the occupancy counts for pt -->
		<param name="inputOccupancyCountsFile" value="null" />
		<!-- possible values: `html', `kml', `txt', `all' -->
		<param name="outputformat" value="null" />
		<!-- every how many iterations (starting with 0) counts comparisons are generated -->
		<param name="ptCountsInterval" value="10" />
	</module>
	<module name="qsim" >
		<param name="endTime" value="undefined" />
		<!-- If set to withLinkAttributes snapshots will only be generated for links which include generateSnapshotForLink as attribute key. Default is no filtering. -->
		<param name="filterSnapshots" value="no" />
		<param name="flowCapacityFactor" value="1.0" />
		<!-- decides if waiting vehicles enter the network after or before the already driving vehicles were moved. Default: false -->
		<param name="insertingWaitingVehiclesBeforeDrivingVehicles" value="true" />
		<!-- If link dynamics is set as SeepageQ, set to false if all seep modes should perform seepage. Default is true (better option). -->
		<param name="isRestrictingSeepage" value="true" />
		<!-- If link dynamics is set as SeepageQ, set to true if seep mode do not consumes any space on the link. Default is false. -->
		<param name="isSeepModeStorageFree" value="false" />
		<!-- default: FIFO; options: FIFO PassingQ SeepageQ -->
		<param name="linkDynamics" value="FIFO" />
		<!-- The (initial) width of the links of the network. Use positive floating point values. This is used only for visualisation. -->
		<param name="linkWidth" value="30.0" />
		<!-- [comma-separated list] Defines which modes are congested modes. Technically, these are the modes that the departure handler of the netsimengine handles.  Effective cell size, effective lane width, flow capacity factor, and storage capacity factor need to be set with diligence.  Need to be vehicular modes to make sense. -->
		<param name="mainMode" value="car" />
		<!-- Shortens a link in the visualization, i.e. its start and end point are moved into towards the center. Does not affect traffic flow.  -->
		<param name="nodeOffset" value="0.0" />
		<!-- Number of threads used for the QSim.  Note that this setting is independent from the "global" threads setting.  In contrast to earlier versions, the non-parallel special version is no longer there. -->
		<param name="numberOfThreads" value="1" />
		<!-- Boolean. `true': stuck vehicles are removed, aborting the plan; `false': stuck vehicles are forced into the next link. `false' is probably the better choice. -->
		<param name="removeStuckVehicles" value="false" />
		<!-- If link dynamics is set as SeepageQ, set a seep mode. Default is bike. -->
		<param name="seepMode" value="bike" />
		<!-- Possible values: minOfEndtimeAndMobsimFinished, onlyUseEndtime -->
		<param name="simEndtimeInterpretation" value="null" />
		<!-- Options: maxOfStarttimeAndEarliestActivityEnd onlyUseStarttime  -->
		<param name="simStarttimeInterpretation" value="onlyUseStarttime" />
		<!-- snapshotStyle. One of: equiDist queue withHoles withHolesAndShowHoles kinematicWaves  -->
		<param name="snapshotStyle" value="queue" />
		<param name="snapshotperiod" value="00:00:00" />
		<param name="startTime" value="undefined" />
		<param name="storageCapacityFactor" value="1.0" />
		<!-- time in seconds.  Time after which the frontmost vehicle on a link is called `stuck' if it does not move. -->
		<param name="stuckTime" value="10.0" />
		<param name="timeStepSize" value="00:00:01" />
		<!-- options: queue withHoles kinematicWaves  -->
		<param name="trafficDynamics" value="queue" />
		<!-- Set this parameter to true if lanes should be used, false if not. -->
		<param name="useLanes" value="false" />
		<!-- If a route does not reference a vehicle, agents will use the vehicle with the same id as their own. -->
		<param name="usePersonIdForMissingVehicleId" value="true" />
		<!-- If false, the qsim accumulates fractional flows up to one flow unit in every time step.  If true, flows are updated only if an agent wants to enter the link or an agent is added to buffer. Default is true. -->
		<param name="usingFastCapacityUpdate" value="true" />
		<!-- Defines what happens if an agent wants to depart, but the specified vehicle is not available. One of: teleport wait exception  -->
		<param name="vehicleBehavior" value="teleport" />
		<!-- If vehicles should all be the same default vehicle, or come from the vehicles file, or something else.  Possible values:  defaultVehicle modeVehicleTypesFromVehiclesData fromVehiclesData -->
		<param name="vehiclesSource" value="defaultVehicle" />
	</module>
	<module name="strategy" >
		<!-- the external executable will be called with a config file as argument.  This is the pathname to a possible skeleton config, to which additional information will be added.  Can be null. -->
		<param name="ExternalExeConfigTemplate" value="null" />
		<!-- time out value (in seconds) after which matsim will consider the external strategy as failed -->
		<param name="ExternalExeTimeOut" value="3600" />
		<!-- root directory for temporary files generated by the external executable. Provided as a service; I don't think this is used by MATSim. -->
		<param name="ExternalExeTmpFileRootDir" value="null" />
		<!-- fraction of iterations where innovative strategies are switched off.  Something like 0.8 should be good.  E.g. if you run from iteration 400 to iteration 500, innovation is switched off at iteration 480 -->
		<param name="fractionOfIterationsToDisableInnovation" value="Infinity" />
		<!-- maximum number of plans per agent.  ``0'' means ``infinity''.  Currently (2010), ``5'' is a good number -->
		<param name="maxAgentPlanMemorySize" value="1" />
		<!-- strategyName of PlanSelector for plans removal.  Possible defaults: WorstPlanSelector SelectRandom SelectExpBetaForRemoval ChangeExpBetaForRemoval PathSizeLogitSelectorForRemoval . The current default, WorstPlanSelector is not a good choice from a discrete choice theoretical perspective. Alternatives, however, have not been systematically tested. kai, feb'12 -->
		<param name="planSelectorForRemoval" value="WorstPlanSelector" />
		<parameterset type="strategysettings" >
			<!-- iteration after which strategy will be disabled.  most useful for ``innovative'' strategies (new routes, new times, ...). Normally, better use fractionOfIterationsToDisableInnovation -->
			<param name="disableAfterIteration" value="-1" />
			<!-- path to external executable (if applicable) -->
			<param name="executionPath" value="null" />
			<!-- strategyName of strategy.  Possible default names: SelectRandom BestScore KeepLastSelected ChangeExpBeta SelectExpBeta SelectPathSizeLogit      (selectors), ReRouteTimeAllocationMutatorTimeAllocationMutator_ReRouteChangeSingleTripModeChangeTripModeSubtourModeChoice (innovative strategies). -->
			<param name="strategyName" value="KeepLastSelected" />
			<!-- subpopulation to which the strategy applies. "null" refers to the default population, that is, the set of persons for which no explicit subpopulation is defined (ie no subpopulation attribute) -->
			<param name="subpopulation" value="null" />
			<!-- weight of a strategy: for each agent, a strategy will be selected with a probability proportional to its weight -->
			<param name="weight" value="1.0" />
		</parameterset>
	</module>
	<module name="subtourModeChoice" >
		<!-- Only for backwards compatibility.  Defines if only trips from modes list should change mode, or all trips.  Options: fromAllModesToSpecifiedModes fromSpecifiedModesToSpecifiedModes  -->
		<param name="behavior" value="fromSpecifiedModesToSpecifiedModes" />
		<!-- Defines the chain-based modes, seperated by commas -->
		<param name="chainBasedModes" value="car,bike" />
		<!-- Defines whether car availability must be considered or not. A agent has no car only if it has no license, or never access to a car -->
		<param name="considerCarAvailability" value="false" />
		<!-- Defines all the modes available, including chain-based modes, seperated by commas -->
		<param name="modes" value="car,pt,bike,walk" />
	</module>
	<module name="transit" >
		<!-- The Coordinates Reference System in which the coordinates are expressed in the input file. At import, the coordinates will be converted to the coordinate system defined in "global", and willbe converted back at export. If not specified, no conversion happens. -->
		<param name="inputScheduleCRS" value="null" />
		<param name="insistingOnUsingDeprecatedAttributeFiles" value="false" />
		<!-- The type of transit routing algorithm used, may have the values: [DijkstraBased, SwissRailRaptor] -->
		<param name="routingAlgorithmType" value="SwissRailRaptor" />
		<!-- Optional input file containing additional attributes for transit lines, stored as ObjectAttributes. -->
		<param name="transitLinesAttributesFile" value="null" />
		<!-- Comma-separated list of transportation modes that are handled as transit. Defaults to 'pt'. -->
		<param name="transitModes" value="pt" />
		<!-- Input file containing the transit schedule to be simulated. -->
		<param name="transitScheduleFile" value="null" />
		<!-- Optional input file containing additional attributes for transit stop facilities, stored as ObjectAttributes. -->
		<param name="transitStopsAttributesFile" value="null" />
		<!-- Set this parameter to true if transit should be simulated, false if not. -->
		<param name="useTransit" value="false" />
		<param name="usingTransitInMobsim" value="true" />
		<!-- Input file containing the vehicles used by the departures in the transit schedule. -->
		<param name="vehiclesFile" value="null" />
	</module>
	<module name="transitRouter" >
		<!-- additional time the router allocates when a line switch happens. Can be interpreted as a 'safety' time that agents need to safely transfer from one line to another -->
		<param name="additionalTransferTime" value="0.0" />
		<!-- Factor with which direct walk generalized cost is multiplied before it is compared to the pt generalized cost.  Set to a very high value to reduce direct walk results. -->
		<param name="directWalkFactor" value="1.0" />
		<!-- step size to increase searchRadius if no stops are found -->
		<param name="extensionRadius" value="200.0" />
		<!-- maximum beeline distance between stops that agents could transfer to by walking -->
		<param name="maxBeelineWalkConnectionDistance" value="100.0" />
		<!-- the radius in which stop locations are searched, given a start or target coordinate -->
		<param name="searchRadius" value="1000.0" />
	</module>
	<module name="travelTimeCalculator" >
		<!-- (only for backwards compatibility; only used if separateModes==false && + filterModes==true)  Transport modes that will be respected by the travel time collector. 'car' is default which includes also buses from the pt simulation module. -->
		<param name="analyzedModes" value="car" />
		<param name="calculateLinkToLinkTravelTimes" value="false" />
		<param name="calculateLinkTravelTimes" value="true" />
		<!-- (only for backwards compatiblity; only used if separateModes==false)  Only modes included in analyzedModes are included. -->
		<param name="filterModes" value="false" />
		<!-- The lenght (in sec) of the time period that is splited into time bins; an additional time bin is created to aggregate all travel times collected after maxTime -->
		<param name="maxTime" value="108000" />
		<!-- (only for backwards compatibility) If false, link travel times are measured and aggregated over all vehicles using the link. -->
		<param name="separateModes" value="true" />
		<!-- How to deal with congested time bins that have no link entry events. `optimistic' assumes free speed (too optimistic); 'experimental_LastMile' is experimental and probably too pessimistic. -->
		<param name="travelTimeAggregator" value="optimistic" />
		<!-- The size of the time bin (in sec) into which the link travel times are aggregated for the router -->
		<param name="travelTimeBinSize" value="900" />
		<!-- possible values: TravelTimeCalculatorArray TravelTimeCalculatorHashMap  -->
		<param name="travelTimeCalculator" value="TravelTimeCalculatorArray" />
		<!-- How to deal with link entry times at different positions during the time bin. Currently supported: average, linearinterpolation -->
		<param name="travelTimeGetter" value="average" />
	</module>
	<module name="vehicles" >
		<param name="vehiclesFile" value="null" />
	</module>
	<module name="vspExperimental" >
		<!-- (do not use except of you have to) There was a problem with pt interaction scoring.  Some people solved it by overwriting the parameters of the pt interaction activity type.  Doing this now throws an Exception.  If you still insist on doing this, set the following to true. -->
		<param name="isAbleToOverwritePtInteractionParams" value="false" />
		<param name="isGeneratingBoardingDeniedEvent" value="false" />
		<!-- if an approximation of the opportunity cost of time is included into the radius calculation for location choice.`true' will be faster, but it is an approximation.  Default is `true'; `false' is available for backwards compatibility. -->
		<param name="isUsingOpportunityCostOfTimeForLocationChoice" value="true" />
		<param name="logitScaleParamForPlansRemoval" value="1.0" />
		<!-- Options: | ignore | info | warn | abort | .  When violating VSP defaults, this results in nothing, logfile infos, logfile warnings, or aborts.  Members of VSP should use `abort' or talk to kai. -->
		<param name="vspDefaultsCheckingLevel" value="ignore" />
		<!-- if true then writes output_events in output directory.  default is `false'. Will only work when lastIteration is multiple of events writing interval -->
		<param name="writingOutputEvents" value="true" />
	</module>

</config>

2022-03-04T15:43:48,634  INFO ControlerUtils:84 Complete config dump done.
2022-03-04T15:43:48,634  INFO ControlerUtils:85 Checking consistency of config...
2022-03-04T15:43:48,634  INFO PlanCalcScoreConfigGroup$ScoringParameterSet:1554 NO OPENING OR CLOSING TIMES DEFINED!

There is no activity type that has an opening *and* closing time (or opening time and late penalty) defined.
This usually means that the activity chains can be shifted by an arbitrary
number of hours without having an effect on the score of the plans, and thus
resulting in wrong results / traffic patterns.
If you are using MATSim without time adaptation, you can ignore this warning.


2022-03-04T15:43:48,635  INFO VspConfigConsistencyCheckerImpl:63 NOT running vsp config consistency check because vsp defaults checking level is set to IGNORE
2022-03-04T15:43:48,647  INFO ControlerUtils:87 Checking consistency of config done.
2022-03-04T15:43:48,712  WARN PrepareForSimImpl:228 'usePersonIdForMissingVehicleId' is deprecated. It will be removed soon.
2022-03-04T15:43:48,716  INFO Counter:69 [VehiclesImpl] added vehicle # 1
2022-03-04T15:43:48,717  INFO Counter:69 [VehiclesImpl] added vehicle # 2
2022-03-04T15:43:48,717  INFO Counter:69 [VehiclesImpl] added vehicle # 4
2022-03-04T15:43:48,717  INFO Counter:69 [VehiclesImpl] added vehicle # 8
2022-03-04T15:43:48,717  INFO Counter:69 [VehiclesImpl] added vehicle # 16
2022-03-04T15:43:48,718  INFO Counter:69 [VehiclesImpl] added vehicle # 32
2022-03-04T15:43:48,718  INFO Counter:69 [VehiclesImpl] added vehicle # 64
2022-03-04T15:43:48,719  INFO Counter:69 [VehiclesImpl] added vehicle # 128
2022-03-04T15:43:48,722  INFO Counter:69 [VehiclesImpl] added vehicle # 256
2022-03-04T15:43:48,726  INFO Counter:69 [VehiclesImpl] added vehicle # 512
2022-03-04T15:43:48,733  INFO Counter:69 [VehiclesImpl] added vehicle # 1024
2022-03-04T15:43:48,740  INFO Counter:69 [VehiclesImpl] added vehicle # 2048
2022-03-04T15:43:48,749  INFO Counter:69 [VehiclesImpl] added vehicle # 4096
2022-03-04T15:43:48,761  INFO Counter:69 [VehiclesImpl] added vehicle # 8192
2022-03-04T15:43:48,802  INFO Counter:69 [VehiclesImpl] added vehicle # 16384
2022-03-04T15:43:48,866  INFO Counter:69 [VehiclesImpl] added vehicle # 32768
2022-03-04T15:43:49,502  INFO PreProcessDijkstra:118 nodes in dead ends: 9354 (total nodes: 93513). Done in 463 ms
2022-03-04T15:43:49,503  WARN PreProcessEuclidean:59 There are links with stored length smaller than their Euclidean distance in this network. Thus, A* cannot guarantee to calculate the least-cost paths between two nodes.
2022-03-04T15:43:49,537  INFO PreProcessLandmarks:112 Putting landmarks on network...
2022-03-04T15:43:49,561  INFO LandmarkerPieSlices:96 Filling sectors...
2022-03-04T15:43:49,819  INFO LandmarkerPieSlices:107 Refining landmarks...
2022-03-04T15:43:49,823  INFO LandmarkerPieSlices:109 done
2022-03-04T15:43:49,824  INFO PreProcessLandmarks:115 done in 287 ms
2022-03-04T15:43:49,824  INFO PreProcessLandmarks:117 Initializing landmarks data
2022-03-04T15:43:49,874  INFO PreProcessLandmarks:129 Calculating distance from each node to each of the 16 landmarks using 2 threads...
2022-03-04T15:43:49,875  INFO PreProcessLandmarks:139 wait for landmarks Calculator to finish...
2022-03-04T15:43:55,037  INFO PreProcessLandmarks:163 done in 5162 ms
2022-03-04T15:43:55,042  INFO NetworkImpl:163  node # 1
2022-03-04T15:43:55,042  INFO NetworkImpl:163  node # 4
2022-03-04T15:43:55,043  INFO NetworkImpl:163  node # 16
2022-03-04T15:43:55,043  INFO NetworkImpl:163  node # 64
2022-03-04T15:43:55,043  INFO NetworkImpl:163  node # 256
2022-03-04T15:43:55,043  INFO NetworkImpl:163  node # 1024
2022-03-04T15:43:55,044  INFO NetworkImpl:163  node # 4096
2022-03-04T15:43:55,047  INFO NetworkImpl:163  node # 16384
2022-03-04T15:43:55,058  INFO NetworkImpl:163  node # 65536
2022-03-04T15:43:55,066  INFO NetworkImpl:159  link # 1
2022-03-04T15:43:55,066  INFO NetworkImpl:159  link # 4
2022-03-04T15:43:55,066  INFO NetworkImpl:159  link # 16
2022-03-04T15:43:55,067  INFO NetworkImpl:159  link # 64
2022-03-04T15:43:55,068  INFO NetworkImpl:159  link # 256
2022-03-04T15:43:55,070  INFO NetworkImpl:159  link # 1024
2022-03-04T15:43:55,077  INFO NetworkImpl:159  link # 4096
2022-03-04T15:43:55,105  INFO NetworkImpl:159  link # 16384
2022-03-04T15:43:55,206  INFO NetworkImpl:159  link # 65536
2022-03-04T15:43:55,576  WARN RandomizingTimeDistanceTravelDisutilityFactory:112 There will be no routing randomness. The randomization of the travel disutility requires the monetary distance rate to be different than zero. Continuing anyway.
2022-03-04T15:43:55,576  WARN RandomizingTimeDistanceTravelDisutilityFactory:117 There will be no routing randomness. The randomization of the travel disutility requires the travel time cost rate to be different than zero. Continuing anyway.
2022-03-04T15:43:55,578  INFO RandomizingTimeDistanceTravelDisutilityFactory:85  sigma: 3.0; resulting normalization: 0.011108996538242306
2022-03-04T15:43:55,807  INFO PreProcessDijkstra:118 nodes in dead ends: 9354 (total nodes: 93513). Done in 228 ms
2022-03-04T15:43:55,808  WARN PreProcessEuclidean:59 There are links with stored length smaller than their Euclidean distance in this network. Thus, A* cannot guarantee to calculate the least-cost paths between two nodes.
2022-03-04T15:43:55,829  INFO PreProcessLandmarks:112 Putting landmarks on network...
2022-03-04T15:43:55,934  INFO LandmarkerPieSlices:96 Filling sectors...
2022-03-04T15:43:56,077  INFO LandmarkerPieSlices:107 Refining landmarks...
2022-03-04T15:43:56,081  INFO LandmarkerPieSlices:109 done
2022-03-04T15:43:56,081  INFO PreProcessLandmarks:115 done in 157 ms
2022-03-04T15:43:56,081  INFO PreProcessLandmarks:117 Initializing landmarks data
2022-03-04T15:43:56,138  INFO PreProcessLandmarks:129 Calculating distance from each node to each of the 16 landmarks using 2 threads...
2022-03-04T15:43:56,139  INFO PreProcessLandmarks:139 wait for landmarks Calculator to finish...
2022-03-04T15:44:00,684  INFO PreProcessLandmarks:163 done in 4546 ms
2022-03-04T15:44:00,783  INFO SpeedyALTData:51 find dead ends...
2022-03-04T15:44:00,815  INFO SpeedyALTData:132 calculate landmarks...
2022-03-04T15:44:02,127  INFO SpeedyALTData:173 calculate min travelcost...
2022-03-04T15:44:02,169  INFO RandomizingTimeDistanceTravelDisutilityFactory:85  sigma: 3.0; resulting normalization: 0.011108996538242306
2022-03-04T15:44:02,196  INFO Counter:69 [PersonPrepareForSim] handled person # 1
2022-03-04T15:44:02,196  INFO Counter:69 [PersonPrepareForSim] handled person # 2
2022-03-04T15:44:02,197  INFO Counter:69 [PersonPrepareForSim] handled person # 4
2022-03-04T15:44:02,197  INFO Counter:69 [PersonPrepareForSim] handled person # 8
2022-03-04T15:44:02,197  INFO Counter:69 [PersonPrepareForSim] handled person # 16
2022-03-04T15:44:02,197  INFO Counter:69 [PersonPrepareForSim] handled person # 32
2022-03-04T15:44:02,197  INFO Counter:69 [PersonPrepareForSim] handled person # 64
2022-03-04T15:44:02,198  INFO Counter:69 [PersonPrepareForSim] handled person # 128
2022-03-04T15:44:02,198  INFO Counter:69 [PersonPrepareForSim] handled person # 256
2022-03-04T15:44:02,199  INFO Counter:69 [PersonPrepareForSim] handled person # 512
2022-03-04T15:44:02,200  INFO Counter:69 [PersonPrepareForSim] handled person # 1024
2022-03-04T15:44:02,203  INFO Counter:69 [PersonPrepareForSim] handled person # 2048
2022-03-04T15:44:02,206  INFO Counter:69 [PersonPrepareForSim] handled person # 4096
2022-03-04T15:44:02,213  INFO Counter:69 [PersonPrepareForSim] handled person # 8192
2022-03-04T15:44:02,225  INFO Counter:69 [PersonPrepareForSim] handled person # 16384
2022-03-04T15:44:02,249  INFO Counter:69 [PersonPrepareForSim] handled person # 32768
2022-03-04T15:44:02,257  INFO Counter:74 [PersonPrepareForSim] handled person # 37675
2022-03-04T15:44:02,311  INFO AbstractController:133 ###################################################
2022-03-04T15:44:02,312  INFO AbstractController:134 ### ITERATION 0 BEGINS
2022-03-04T15:44:02,314  INFO ControlerListenerManagerImpl:145 calling notifyIterationStarts on org.matsim.analysis.LegHistogramListener
2022-03-04T15:44:02,314  INFO ControlerListenerManagerImpl:145 calling notifyIterationStarts on org.matsim.analysis.LinkStatsControlerListener
2022-03-04T15:44:02,314  INFO ControlerListenerManagerImpl:145 calling notifyIterationStarts on org.matsim.core.replanning.ReplanningContextImpl
2022-03-04T15:44:02,314  INFO ControlerListenerManagerImpl:145 calling notifyIterationStarts on org.matsim.core.scoring.ScoringFunctionsForPopulation$$Lambda$236/0x0000000800f3d818
2022-03-04T15:44:02,460  INFO ControlerListenerManagerImpl:145 calling notifyIterationStarts on org.matsim.core.scoring.ExperiencedPlansServiceImpl$1
2022-03-04T15:44:02,470  INFO ControlerListenerManagerImpl:148 [it.0] all ControlerIterationStartsListeners called.
2022-03-04T15:44:02,471  INFO ControlerListenerManagerImpl:224 calling notifyBeforeMobsim on org.matsim.core.controler.corelisteners.EventsHandlingImpl
2022-03-04T15:44:02,471  INFO EventsManagerImpl:190 resetting Event-Handlers
2022-03-04T15:44:02,471  INFO EventsManagerImpl:197   org.matsim.core.trafficmonitoring.TravelTimeCalculator
2022-03-04T15:44:02,472  INFO EventsManagerImpl:197   org.matsim.contrib.taxi.fare.TaxiFareHandler
2022-03-04T15:44:02,472  INFO EventsManagerImpl:197   org.matsim.analysis.VolumesAnalyzer
2022-03-04T15:44:02,474  INFO EventsManagerImpl:197   org.matsim.core.scoring.ScoringFunctionsForPopulation
2022-03-04T15:44:02,474  INFO EventsManagerImpl:197   org.matsim.analysis.LegHistogram
2022-03-04T15:44:02,474  INFO EventsManagerImpl:197   org.matsim.analysis.CalcLegTimes
2022-03-04T15:44:02,474  INFO EventsManagerImpl:197   org.matsim.contrib.taxi.analysis.TaxiEventSequenceCollector
2022-03-04T15:44:02,474  INFO EventsManagerImpl:197   org.matsim.contrib.dvrp.analysis.ExecutedScheduleCollector
2022-03-04T15:44:02,479  INFO EventsManagerImpl:160 adding Event-Handler: org.matsim.core.events.algorithms.EventWriterXML
2022-03-04T15:44:02,479  INFO EventsManagerImpl:166   org.matsim.core.events.algorithms.EventWriter
2022-03-04T15:44:02,479  INFO EventsManagerImpl:166   org.matsim.core.events.handler.BasicEventHandler
2022-03-04T15:44:02,480  INFO EventsManagerImpl:227     > org.matsim.api.core.v01.events.Event
2022-03-04T15:44:02,480  INFO EventsManagerImpl:176 
2022-03-04T15:44:02,480  INFO EventsManagerImpl:160 adding Event-Handler: org.matsim.core.events.algorithms.EventWriterXML
2022-03-04T15:44:02,480  INFO EventsManagerImpl:166   org.matsim.core.events.algorithms.EventWriter
2022-03-04T15:44:02,480  INFO EventsManagerImpl:166   org.matsim.core.events.handler.BasicEventHandler
2022-03-04T15:44:02,480  INFO EventsManagerImpl:227     > org.matsim.api.core.v01.events.Event
2022-03-04T15:44:02,480  INFO EventsManagerImpl:176 
2022-03-04T15:44:02,480  INFO ControlerListenerManagerImpl:224 calling notifyBeforeMobsim on org.matsim.core.controler.corelisteners.PlansDumpingImpl
2022-03-04T15:44:02,480  INFO PlansDumpingImpl:76 dumping plans...
2022-03-04T15:44:02,506  INFO Counter:69 [PopulationWriter] dumped person # 1
2022-03-04T15:44:02,506  INFO Counter:69 [PopulationWriter] dumped person # 2
2022-03-04T15:44:02,507  INFO Counter:69 [PopulationWriter] dumped person # 4
2022-03-04T15:44:02,507  INFO Counter:69 [PopulationWriter] dumped person # 8
2022-03-04T15:44:02,508  INFO Counter:69 [PopulationWriter] dumped person # 16
2022-03-04T15:44:02,509  INFO Counter:69 [PopulationWriter] dumped person # 32
2022-03-04T15:44:02,511  INFO Counter:69 [PopulationWriter] dumped person # 64
2022-03-04T15:44:02,516  INFO Counter:69 [PopulationWriter] dumped person # 128
2022-03-04T15:44:02,524  INFO Counter:69 [PopulationWriter] dumped person # 256
2022-03-04T15:44:02,536  INFO Counter:69 [PopulationWriter] dumped person # 512
2022-03-04T15:44:02,551  INFO Counter:69 [PopulationWriter] dumped person # 1024
2022-03-04T15:44:02,574  INFO Counter:69 [PopulationWriter] dumped person # 2048
2022-03-04T15:44:02,616  INFO Counter:69 [PopulationWriter] dumped person # 4096
2022-03-04T15:44:02,719  INFO Counter:69 [PopulationWriter] dumped person # 8192
2022-03-04T15:44:02,954  INFO Counter:69 [PopulationWriter] dumped person # 16384
2022-03-04T15:44:03,333  INFO Counter:69 [PopulationWriter] dumped person # 32768
2022-03-04T15:44:03,432  INFO PopulationWriter:144 Population written to: output/Chicago190701_scooter3333/ITERS/it.0/0.plans.xml.gz
2022-03-04T15:44:03,433  INFO Counter:74 [PopulationWriter] dumped person # 37675
2022-03-04T15:44:03,434  INFO PlansDumpingImpl:93 finished plans dump.
2022-03-04T15:44:03,434  INFO ControlerListenerManagerImpl:229 calling notifyBeforeMobsim on org.matsim.core.population.VspPlansCleaner
2022-03-04T15:44:03,469  INFO ControlerListenerManagerImpl:232 [it.0] all ControlerBeforeMobsimListeners called.
2022-03-04T15:44:03,496  INFO RandomizingTimeDistanceTravelDisutilityFactory:85  sigma: 3.0; resulting normalization: 0.011108996538242306
2022-03-04T15:44:03,566  INFO RandomizingTimeDistanceTravelDisutilityFactory:85  sigma: 3.0; resulting normalization: 0.011108996538242306
2022-03-04T15:44:03,604  INFO Counter:69 [PersonPrepareForSim] handled person # 1
2022-03-04T15:44:03,604  INFO Counter:69 [PersonPrepareForSim] handled person # 2
2022-03-04T15:44:03,604  INFO Counter:69 [PersonPrepareForSim] handled person # 4
2022-03-04T15:44:03,604  INFO Counter:69 [PersonPrepareForSim] handled person # 8
2022-03-04T15:44:03,604  INFO Counter:69 [PersonPrepareForSim] handled person # 16
2022-03-04T15:44:03,604  INFO Counter:69 [PersonPrepareForSim] handled person # 32
2022-03-04T15:44:03,604  INFO Counter:69 [PersonPrepareForSim] handled person # 64
2022-03-04T15:44:03,605  INFO Counter:69 [PersonPrepareForSim] handled person # 256
2022-03-04T15:44:03,604  INFO Counter:69 [PersonPrepareForSim] handled person # 128
2022-03-04T15:44:03,605  INFO Counter:69 [PersonPrepareForSim] handled person # 512
2022-03-04T15:44:03,605  INFO Counter:69 [PersonPrepareForSim] handled person # 1024
2022-03-04T15:44:03,606  INFO Counter:69 [PersonPrepareForSim] handled person # 2048
2022-03-04T15:44:03,608  INFO Counter:69 [PersonPrepareForSim] handled person # 4096
2022-03-04T15:44:03,611  INFO Counter:69 [PersonPrepareForSim] handled person # 8192
2022-03-04T15:44:03,617  INFO Counter:69 [PersonPrepareForSim] handled person # 16384
2022-03-04T15:44:03,631  INFO Counter:69 [PersonPrepareForSim] handled person # 32768
2022-03-04T15:44:03,634  INFO Counter:74 [PersonPrepareForSim] handled person # 37675
2022-03-04T15:44:03,728  INFO MobsimListenerManager:49 calling addQueueSimulationListener
2022-03-04T15:44:03,729  INFO MobsimListenerManager:53   assigned class org.matsim.core.mobsim.framework.listeners.MobsimListener to interface org.matsim.contrib.dvrp.trafficmonitoring.DvrpOfflineTravelTimeEstimator
2022-03-04T15:44:03,729  INFO MobsimListenerManager:53   assigned class org.matsim.core.mobsim.framework.listeners.MobsimListener to interface org.matsim.core.mobsim.framework.listeners.MobsimBeforeCleanupListener
2022-03-04T15:44:03,729  INFO MobsimListenerManager:53   assigned class org.matsim.core.mobsim.framework.listeners.MobsimListener to interface org.matsim.core.mobsim.framework.listeners.MobsimListener
2022-03-04T15:44:03,729  INFO MobsimListenerManager:49 calling addQueueSimulationListener
2022-03-04T15:44:03,729  INFO MobsimListenerManager:53   assigned class org.matsim.core.mobsim.framework.listeners.MobsimListener to interface org.matsim.core.mobsim.framework.listeners.MobsimBeforeCleanupListener
2022-03-04T15:44:03,730  INFO MobsimListenerManager:53   assigned class org.matsim.core.mobsim.framework.listeners.MobsimListener to interface org.matsim.core.mobsim.framework.listeners.MobsimInitializedListener
2022-03-04T15:44:03,730  INFO MobsimListenerManager:53   assigned class org.matsim.core.mobsim.framework.listeners.MobsimListener to interface org.matsim.core.mobsim.framework.listeners.MobsimAfterSimStepListener
2022-03-04T15:44:03,730  INFO MobsimListenerManager:53   assigned class org.matsim.core.mobsim.framework.listeners.MobsimListener to interface org.matsim.vis.snapshotwriters.SnapshotWriterManager
2022-03-04T15:44:03,730  INFO MobsimListenerManager:53   assigned class org.matsim.core.mobsim.framework.listeners.MobsimListener to interface org.matsim.core.mobsim.framework.listeners.MobsimListener
2022-03-04T15:44:03,860  INFO SpeedyALTData:51 find dead ends...
2022-03-04T15:44:03,884  INFO SpeedyALTData:132 calculate landmarks...
2022-03-04T15:44:05,455  INFO SpeedyALTData:173 calculate min travelcost...
2022-03-04T15:44:05,707  INFO SpeedyALTData:51 find dead ends...
2022-03-04T15:44:05,718  INFO SpeedyALTData:132 calculate landmarks...
2022-03-04T15:44:07,191  INFO SpeedyALTData:173 calculate min travelcost...
2022-03-04T15:44:07,343  INFO RandomizingTimeDistanceTravelDisutilityFactory:85  sigma: 3.0; resulting normalization: 0.011108996538242306
2022-03-04T15:44:08,420  INFO EventsManagerImpl:160 adding Event-Handler: org.matsim.contrib.dvrp.passenger.DefaultPassengerEngine
2022-03-04T15:44:08,421  INFO EventsManagerImpl:166   org.matsim.contrib.dvrp.passenger.PassengerEngine
2022-03-04T15:44:08,432  INFO EventsManagerImpl:166   org.matsim.contrib.dvrp.passenger.PassengerRequestRejectedEventHandler
2022-03-04T15:44:08,433  INFO EventsManagerImpl:227     > org.matsim.contrib.dvrp.passenger.PassengerRequestRejectedEvent
2022-03-04T15:44:08,434  INFO EventsManagerImpl:176 
2022-03-04T15:44:08,434  INFO EventsManagerImpl:160 adding Event-Handler: org.matsim.contrib.dvrp.passenger.DefaultPassengerEngine
2022-03-04T15:44:08,434  INFO EventsManagerImpl:166   org.matsim.contrib.dvrp.passenger.PassengerEngine
2022-03-04T15:44:08,435  INFO EventsManagerImpl:166   org.matsim.contrib.dvrp.passenger.PassengerRequestRejectedEventHandler
2022-03-04T15:44:08,435  INFO EventsManagerImpl:227     > org.matsim.contrib.dvrp.passenger.PassengerRequestRejectedEvent
2022-03-04T15:44:08,435  INFO EventsManagerImpl:176 
2022-03-04T15:44:08,438  INFO QSimProvider:115 Added MobsimEngine class org.matsim.core.mobsim.qsim.ActivityEngineDefaultImpl
2022-03-04T15:44:08,438  INFO QSimProvider:121 Added Activityhandler class org.matsim.core.mobsim.qsim.ActivityEngineDefaultImpl
2022-03-04T15:44:08,438  INFO QSimProvider:127 Added DepartureHandler class org.matsim.core.mobsim.qsim.qnetsimengine.VehicularDepartureHandler
2022-03-04T15:44:08,439  INFO QSimProvider:115 Added MobsimEngine class org.matsim.core.mobsim.qsim.qnetsimengine.QNetsimEngineWithThreadpool
2022-03-04T15:44:08,439  INFO QSimProvider:115 Added MobsimEngine class org.matsim.core.mobsim.qsim.DefaultTeleportationEngine
2022-03-04T15:44:08,439  INFO QSimProvider:127 Added DepartureHandler class org.matsim.core.mobsim.qsim.DefaultTeleportationEngine
2022-03-04T15:44:08,439  INFO QSimProvider:133 Added AgentSource class org.matsim.core.mobsim.qsim.agents.PopulationAgentSource
2022-03-04T15:44:08,440  INFO MobsimListenerManager:49 calling addQueueSimulationListener
2022-03-04T15:44:08,440  INFO MobsimListenerManager:53   assigned class org.matsim.core.mobsim.framework.listeners.MobsimListener to interface org.matsim.core.mobsim.qsim.messagequeueengine.MessageQueueEngine
2022-03-04T15:44:08,440  INFO MobsimListenerManager:53   assigned class org.matsim.core.mobsim.framework.listeners.MobsimListener to interface org.matsim.core.mobsim.framework.listeners.MobsimBeforeSimStepListener
2022-03-04T15:44:08,440  INFO MobsimListenerManager:53   assigned class org.matsim.core.mobsim.framework.listeners.MobsimListener to interface org.matsim.core.mobsim.framework.listeners.MobsimListener
2022-03-04T15:44:08,441  INFO QSimProvider:139 Added MobsimListener class org.matsim.core.mobsim.qsim.messagequeueengine.MessageQueueEngine
2022-03-04T15:44:08,442  INFO QSimProvider:115 Added MobsimEngine class org.matsim.contrib.dynagent.run.DynActivityEngine
2022-03-04T15:44:08,442  INFO QSimProvider:121 Added Activityhandler class org.matsim.contrib.dynagent.run.DynActivityEngine
2022-03-04T15:44:08,443  WARN EditTrips:115 no TransitStopAgentTracker found in qsim. Replanning of pt/transit legs will not work properly and will likely fail.
2022-03-04T15:44:08,444  INFO QSimProvider:115 Added MobsimEngine class org.matsim.core.mobsim.qsim.PreplanningEngine
2022-03-04T15:44:08,445  INFO QSimProvider:133 Added AgentSource class org.matsim.contrib.dvrp.vrpagent.VrpAgentSource
2022-03-04T15:44:08,445  INFO QSimProvider:115 Added MobsimEngine class org.matsim.contrib.dvrp.passenger.DefaultPassengerEngine
2022-03-04T15:44:08,445  INFO QSimProvider:127 Added DepartureHandler class org.matsim.contrib.dvrp.passenger.DefaultPassengerEngine
2022-03-04T15:44:08,445  INFO MobsimListenerManager:49 calling addQueueSimulationListener
2022-03-04T15:44:08,445  INFO MobsimListenerManager:53   assigned class org.matsim.core.mobsim.framework.listeners.MobsimListener to interface org.matsim.contrib.taxi.optimizer.DefaultTaxiOptimizer
2022-03-04T15:44:08,445  INFO MobsimListenerManager:53   assigned class org.matsim.core.mobsim.framework.listeners.MobsimListener to interface org.matsim.contrib.taxi.optimizer.TaxiOptimizer
2022-03-04T15:44:08,446  INFO MobsimListenerManager:53   assigned class org.matsim.core.mobsim.framework.listeners.MobsimListener to interface org.matsim.core.mobsim.framework.listeners.MobsimBeforeSimStepListener
2022-03-04T15:44:08,446  INFO MobsimListenerManager:53   assigned class org.matsim.core.mobsim.framework.listeners.MobsimListener to interface org.matsim.core.mobsim.framework.listeners.MobsimListener
2022-03-04T15:44:08,446  INFO QSimProvider:139 Added MobsimListener class org.matsim.contrib.taxi.optimizer.DefaultTaxiOptimizer
2022-03-04T15:44:08,446  INFO MobsimListenerManager:49 calling addQueueSimulationListener
2022-03-04T15:44:08,447  INFO MobsimListenerManager:53   assigned class org.matsim.core.mobsim.framework.listeners.MobsimListener to interface org.matsim.core.mobsim.framework.listeners.MobsimBeforeCleanupListener
2022-03-04T15:44:08,447  INFO MobsimListenerManager:53   assigned class org.matsim.core.mobsim.framework.listeners.MobsimListener to interface org.matsim.core.mobsim.framework.listeners.MobsimListener
2022-03-04T15:44:08,448  INFO MobsimListenerManager:53   assigned class org.matsim.core.mobsim.framework.listeners.MobsimListener to interface org.matsim.contrib.taxi.scheduler.TaxiScheduler
2022-03-04T15:44:08,448  INFO QSimProvider:139 Added MobsimListener class org.matsim.contrib.taxi.scheduler.TaxiScheduler
2022-03-04T15:44:08,448  INFO MobsimListenerManager:49 calling addQueueSimulationListener
2022-03-04T15:44:08,449  INFO MobsimListenerManager:53   assigned class org.matsim.core.mobsim.framework.listeners.MobsimListener to interface org.matsim.core.mobsim.framework.listeners.MobsimBeforeCleanupListener
2022-03-04T15:44:08,449  INFO MobsimListenerManager:53   assigned class org.matsim.core.mobsim.framework.listeners.MobsimListener to interface org.matsim.core.mobsim.framework.listeners.MobsimListener
2022-03-04T15:44:08,449  INFO MobsimListenerManager:53   assigned class org.matsim.core.mobsim.framework.listeners.MobsimListener to interface org.matsim.contrib.taxi.util.TaxiSimulationConsistencyChecker
2022-03-04T15:44:08,450  INFO QSimProvider:139 Added MobsimListener class org.matsim.contrib.taxi.util.TaxiSimulationConsistencyChecker
2022-03-04T15:44:08,461  INFO MobsimListenerManager:49 calling addQueueSimulationListener
2022-03-04T15:44:08,461  INFO MobsimListenerManager:53   assigned class org.matsim.core.mobsim.framework.listeners.MobsimListener to interface org.matsim.contrib.common.timeprofile.TimeProfileCollector
2022-03-04T15:44:08,462  INFO MobsimListenerManager:53   assigned class org.matsim.core.mobsim.framework.listeners.MobsimListener to interface org.matsim.core.mobsim.framework.listeners.MobsimBeforeCleanupListener
2022-03-04T15:44:08,462  INFO MobsimListenerManager:53   assigned class org.matsim.core.mobsim.framework.listeners.MobsimListener to interface org.matsim.core.mobsim.framework.listeners.MobsimBeforeSimStepListener
2022-03-04T15:44:08,462  INFO MobsimListenerManager:53   assigned class org.matsim.core.mobsim.framework.listeners.MobsimListener to interface org.matsim.core.mobsim.framework.listeners.MobsimListener
2022-03-04T15:44:08,462  INFO QSimProvider:139 Added MobsimListener class org.matsim.contrib.common.timeprofile.TimeProfileCollector
2022-03-04T15:44:08,473  INFO PopulationUtils:1140 adding scenario element for allpersons container
2022-03-04T15:44:08,474  INFO PopulationImpl:105  person # 1
2022-03-04T15:44:08,474  INFO PopulationImpl:105  person # 4
2022-03-04T15:44:08,475  INFO PopulationImpl:105  person # 16
2022-03-04T15:44:08,476  INFO PopulationImpl:105  person # 64
2022-03-04T15:44:08,479  INFO PopulationImpl:105  person # 256
2022-03-04T15:44:08,485  INFO PopulationImpl:105  person # 1024
2022-03-04T15:44:08,495  INFO PopulationImpl:105  person # 4096
2022-03-04T15:44:08,529  INFO PopulationImpl:105  person # 16384
2022-03-04T15:44:08,867  INFO VehicleUtils:324 adding scenario element for allvehicles container
2022-03-04T15:44:08,867  INFO Counter:69 [VehiclesImpl] added vehicle # 1
2022-03-04T15:44:08,868  INFO Counter:69 [VehiclesImpl] added vehicle # 2
2022-03-04T15:44:08,868  INFO Counter:69 [VehiclesImpl] added vehicle # 4
2022-03-04T15:44:08,868  INFO Counter:69 [VehiclesImpl] added vehicle # 8
2022-03-04T15:44:08,868  INFO Counter:69 [VehiclesImpl] added vehicle # 16
2022-03-04T15:44:08,869  INFO Counter:69 [VehiclesImpl] added vehicle # 32
2022-03-04T15:44:08,869  INFO Counter:69 [VehiclesImpl] added vehicle # 64
2022-03-04T15:44:08,870  INFO Counter:69 [VehiclesImpl] added vehicle # 128
2022-03-04T15:44:08,871  INFO Counter:69 [VehiclesImpl] added vehicle # 256
2022-03-04T15:44:08,873  INFO Counter:69 [VehiclesImpl] added vehicle # 512
[...]
2022-03-04T16:32:48,679  INFO MemoryObserver:41 used RAM: 2065 MB  free: 458 MB  total: 2524 MB
2022-03-04T16:33:48,681  INFO MemoryObserver:41 used RAM: 1621 MB  free: 902 MB  total: 2524 MB
2022-03-04T16:34:48,687  INFO MemoryObserver:41 used RAM: 2125 MB  free: 398 MB  total: 2524 MB
2022-03-04T16:34:57,780  INFO AbstractQNetsimEngine:365 SIMULATION (QNetsimEngine) AT 05:00:00 : #links=237 #nodes=100
2022-03-04T16:34:57,781  INFO QSim:553 SIMULATION (NEW QSim) AT 05:00:00 : #Veh=34035 lost=0 simT=18000.0s realT=3054s; (s/r): 5.893909626719057
2022-03-04T16:35:48,693  INFO MemoryObserver:41 used RAM: 1598 MB  free: 925 MB  total: 2524 MB
2022-03-04T16:36:48,699  INFO MemoryObserver:41 used RAM: 1997 MB  free: 526 MB  total: 2524 MB
2022-03-04T16:37:48,703  INFO MemoryObserver:41 used RAM: 2229 MB  free: 294 MB  total: 2524 MB
2022-03-04T16:38:48,705  INFO MemoryObserver:41 used RAM: 1650 MB  free: 873 MB  total: 2524 MB
2022-03-04T16:39:48,710  INFO MemoryObserver:41 used RAM: 1766 MB  free: 757 MB  total: 2524 MB
2022-03-04T16:40:48,715  INFO MemoryObserver:41 used RAM: 2009 MB  free: 514 MB  total: 2524 MB
2022-03-04T16:41:48,719  INFO MemoryObserver:41 used RAM: 2234 MB  free: 289 MB  total: 2524 MB
2022-03-04T16:42:48,724  INFO MemoryObserver:41 used RAM: 1535 MB  free: 988 MB  total: 2524 MB
2022-03-04T16:43:48,727  INFO MemoryObserver:41 used RAM: 1722 MB  free: 801 MB  total: 2524 MB
2022-03-04T16:44:48,729  INFO MemoryObserver:41 used RAM: 1918 MB  free: 605 MB  total: 2524 MB
2022-03-04T16:44:57,289  INFO AbstractQNetsimEngine:365 SIMULATION (QNetsimEngine) AT 06:00:00 : #links=130 #nodes=52
2022-03-04T16:44:57,289  INFO QSim:553 SIMULATION (NEW QSim) AT 06:00:00 : #Veh=33190 lost=0 simT=21600.0s realT=3653s; (s/r): 5.91294826170271
2022-03-04T16:45:10,328  INFO AbstractQNetsimEngine:365 SIMULATION (QNetsimEngine) AT 07:00:00 : #links=103 #nodes=48
2022-03-04T16:45:10,329  INFO QSim:553 SIMULATION (NEW QSim) AT 07:00:00 : #Veh=32627 lost=0 simT=25200.0s realT=3666s; (s/r): 6.873977086743044
2022-03-04T16:45:42,899  INFO AbstractQNetsimEngine:365 SIMULATION (QNetsimEngine) AT 08:00:00 : #links=129 #nodes=64
2022-03-04T16:45:42,899  INFO QSim:553 SIMULATION (NEW QSim) AT 08:00:00 : #Veh=31634 lost=0 simT=28800.0s realT=3699s; (s/r): 7.785888077858881
2022-03-04T16:45:48,734  INFO MemoryObserver:41 used RAM: 1614 MB  free: 909 MB  total: 2524 MB
2022-03-04T16:46:48,740  INFO MemoryObserver:41 used RAM: 2087 MB  free: 452 MB  total: 2540 MB
2022-03-04T16:46:52,621  INFO AbstractQNetsimEngine:365 SIMULATION (QNetsimEngine) AT 09:00:00 : #links=165 #nodes=70
2022-03-04T16:46:52,621  INFO QSim:553 SIMULATION (NEW QSim) AT 09:00:00 : #Veh=29860 lost=0 simT=32400.0s realT=3768s; (s/r): 8.598726114649681
2022-03-04T16:47:30,703  INFO AbstractQNetsimEngine:365 SIMULATION (QNetsimEngine) AT 10:00:00 : #links=107 #nodes=50
2022-03-04T16:47:30,704  INFO QSim:553 SIMULATION (NEW QSim) AT 10:00:00 : #Veh=27625 lost=0 simT=36000.0s realT=3806s; (s/r): 9.458749343142406
2022-03-04T16:47:44,368  INFO EventsManagerImpl:137  event # 4194304
2022-03-04T16:47:48,745  INFO MemoryObserver:41 used RAM: 1897 MB  free: 642 MB  total: 2540 MB
2022-03-04T16:47:55,158  INFO AbstractQNetsimEngine:365 SIMULATION (QNetsimEngine) AT 11:00:00 : #links=107 #nodes=47
2022-03-04T16:47:55,160  INFO QSim:553 SIMULATION (NEW QSim) AT 11:00:00 : #Veh=25690 lost=0 simT=39600.0s realT=3831s; (s/r): 10.33672670321065
2022-03-04T16:48:12,828  INFO AbstractQNetsimEngine:365 SIMULATION (QNetsimEngine) AT 12:00:00 : #links=122 #nodes=48
2022-03-04T16:48:12,829  INFO QSim:553 SIMULATION (NEW QSim) AT 12:00:00 : #Veh=23672 lost=0 simT=43200.0s realT=3849s; (s/r): 11.22369446609509
2022-03-04T16:48:35,967  INFO AbstractQNetsimEngine:365 SIMULATION (QNetsimEngine) AT 13:00:00 : #links=116 #nodes=44
2022-03-04T16:48:35,967  INFO QSim:553 SIMULATION (NEW QSim) AT 13:00:00 : #Veh=21374 lost=0 simT=46800.0s realT=3872s; (s/r): 12.086776859504132
2022-03-04T16:48:48,746  INFO MemoryObserver:41 used RAM: 1564 MB  free: 1039 MB  total: 2604 MB
2022-03-04T16:49:04,469  INFO AbstractQNetsimEngine:365 SIMULATION (QNetsimEngine) AT 14:00:00 : #links=154 #nodes=68
2022-03-04T16:49:04,469  INFO QSim:553 SIMULATION (NEW QSim) AT 14:00:00 : #Veh=19218 lost=0 simT=50400.0s realT=3900s; (s/r): 12.923076923076923
2022-03-04T16:49:38,043  INFO AbstractQNetsimEngine:365 SIMULATION (QNetsimEngine) AT 15:00:00 : #links=141 #nodes=61
2022-03-04T16:49:38,043  INFO QSim:553 SIMULATION (NEW QSim) AT 15:00:00 : #Veh=16998 lost=0 simT=54000.0s realT=3934s; (s/r): 13.726487036095577
2022-03-04T16:49:48,750  INFO MemoryObserver:41 used RAM: 2262 MB  free: 375 MB  total: 2638 MB
2022-03-04T16:50:01,476  INFO AbstractQNetsimEngine:365 SIMULATION (QNetsimEngine) AT 16:00:00 : #links=124 #nodes=45
2022-03-04T16:50:01,477  INFO QSim:553 SIMULATION (NEW QSim) AT 16:00:00 : #Veh=14780 lost=0 simT=57600.0s realT=3957s; (s/r): 14.556482183472328
2022-03-04T16:50:28,226  INFO AbstractQNetsimEngine:365 SIMULATION (QNetsimEngine) AT 17:00:00 : #links=157 #nodes=56
2022-03-04T16:50:28,227  INFO QSim:553 SIMULATION (NEW QSim) AT 17:00:00 : #Veh=12233 lost=0 simT=61200.0s realT=3984s; (s/r): 15.36144578313253
2022-03-04T16:50:48,751  INFO MemoryObserver:41 used RAM: 2301 MB  free: 448 MB  total: 2750 MB
2022-03-04T16:50:56,355  INFO AbstractQNetsimEngine:365 SIMULATION (QNetsimEngine) AT 18:00:00 : #links=101 #nodes=39
2022-03-04T16:50:56,356  INFO QSim:553 SIMULATION (NEW QSim) AT 18:00:00 : #Veh=9540 lost=0 simT=64800.0s realT=4012s; (s/r): 16.151545363908276
2022-03-04T16:51:16,415  INFO AbstractQNetsimEngine:365 SIMULATION (QNetsimEngine) AT 19:00:00 : #links=95 #nodes=42
2022-03-04T16:51:16,416  INFO QSim:553 SIMULATION (NEW QSim) AT 19:00:00 : #Veh=7214 lost=0 simT=68400.0s realT=4032s; (s/r): 16.964285714285715
2022-03-04T16:51:34,701  INFO AbstractQNetsimEngine:365 SIMULATION (QNetsimEngine) AT 20:00:00 : #links=96 #nodes=31
2022-03-04T16:51:34,702  INFO QSim:553 SIMULATION (NEW QSim) AT 20:00:00 : #Veh=5380 lost=0 simT=72000.0s realT=4050s; (s/r): 17.77777777777778
2022-03-04T16:51:48,757  INFO MemoryObserver:41 used RAM: 1874 MB  free: 899 MB  total: 2774 MB
2022-03-04T16:52:05,143  INFO AbstractQNetsimEngine:365 SIMULATION (QNetsimEngine) AT 21:00:00 : #links=108 #nodes=57
2022-03-04T16:52:05,144  INFO QSim:553 SIMULATION (NEW QSim) AT 21:00:00 : #Veh=3958 lost=0 simT=75600.0s realT=4081s; (s/r): 18.524871355060036
2022-03-04T16:52:26,107  INFO AbstractQNetsimEngine:365 SIMULATION (QNetsimEngine) AT 22:00:00 : #links=77 #nodes=34
2022-03-04T16:52:26,108  INFO QSim:553 SIMULATION (NEW QSim) AT 22:00:00 : #Veh=2683 lost=0 simT=79200.0s realT=4102s; (s/r): 19.30765480253535
2022-03-04T16:52:48,763  INFO MemoryObserver:41 used RAM: 1735 MB  free: 1038 MB  total: 2774 MB
2022-03-04T16:52:51,425  INFO AbstractQNetsimEngine:365 SIMULATION (QNetsimEngine) AT 23:00:00 : #links=68 #nodes=19
2022-03-04T16:52:51,425  INFO QSim:553 SIMULATION (NEW QSim) AT 23:00:00 : #Veh=1730 lost=0 simT=82800.0s realT=4127s; (s/r): 20.06299975769324
2022-03-04T16:53:08,547  INFO AbstractQNetsimEngine:365 SIMULATION (QNetsimEngine) AT 24:00:00 : #links=41 #nodes=19
2022-03-04T16:53:08,553  INFO QSim:553 SIMULATION (NEW QSim) AT 24:00:00 : #Veh=140 lost=0 simT=86400.0s realT=4144s; (s/r): 20.84942084942085
2022-03-04T16:53:13,442  INFO AbstractController$9:234 ### ITERATION 0 fires after mobsim event
2022-03-04T16:53:13,442  INFO ControlerListenerManagerImpl:248 calling notifyAfterMobsim on org.matsim.analysis.LegTimesControlerListener
2022-03-04T16:53:13,444  INFO Gbl:191 Thread performance: Thread=class org.matsim.core.events.SimStepParallelEventsManagerImpl$ProcessEventsRunnable0  cpu-time=43.033677sec
2022-03-04T16:53:13,447  INFO LegTimesControlerListener:50 [0] average trip (probably: leg) duration is: 672 seconds = 00:11:12
2022-03-04T16:53:13,447  INFO ControlerListenerManagerImpl:248 calling notifyAfterMobsim on org.matsim.core.events.MobsimScopeEventHandling
2022-03-04T16:53:13,448  INFO EventsManagerImpl:181 removing Event-Handler: org.matsim.contrib.dvrp.passenger.DefaultPassengerEngine
2022-03-04T16:53:13,448  INFO EventsManagerImpl:181 removing Event-Handler: org.matsim.contrib.dvrp.passenger.DefaultPassengerEngine
2022-03-04T16:53:13,448  INFO ControlerListenerManagerImpl:248 calling notifyAfterMobsim on org.matsim.contrib.dvrp.trafficmonitoring.DvrpOfflineTravelTimeEstimator
2022-03-04T16:53:15,424  INFO ControlerListenerManagerImpl:248 calling notifyAfterMobsim on org.matsim.contrib.taxi.util.stats.TaxiStatsDumper
2022-03-04T16:53:16,144  INFO ControlerListenerManagerImpl:248 calling notifyAfterMobsim on org.matsim.core.scoring.EventsToActivities$1
2022-03-04T16:53:16,217  INFO ControlerListenerManagerImpl:251 [it.0] all ControlerAfterMobsimListeners called.
2022-03-04T16:53:16,218  INFO AbstractController$4:159 ### ITERATION 0 fires scoring event
2022-03-04T16:53:16,218  INFO ControlerListenerManagerImpl:183 calling notifyScoring on org.matsim.core.scoring.PlansScoringImpl
2022-03-04T16:53:16,258  INFO NewScoreAssignerImpl:57 it: 0 msaStart: null
2022-03-04T16:53:16,284  INFO ControlerListenerManagerImpl:194 [it.0] all ControlerScoringListeners called.
2022-03-04T16:53:16,285  INFO AbstractController$5:167 ### ITERATION 0 fires iteration end event
2022-03-04T16:53:16,285  INFO ControlerListenerManagerImpl:160 calling notifyIterationEnds on org.matsim.core.controler.corelisteners.EventsHandlingImpl
2022-03-04T16:53:16,287  INFO EventsManagerImpl:181 removing Event-Handler: org.matsim.core.events.algorithms.EventWriterXML
2022-03-04T16:53:16,287  INFO EventsManagerImpl:181 removing Event-Handler: org.matsim.core.events.algorithms.EventWriterXML
2022-03-04T16:53:16,287  INFO ControlerListenerManagerImpl:160 calling notifyIterationEnds on org.matsim.core.scoring.PlansScoringImpl
2022-03-04T16:53:16,305  INFO ControlerListenerManagerImpl:167 calling notifyIterationEnds on org.matsim.counts.CountsControlerListener
2022-03-04T16:53:16,306  INFO ControlerListenerManagerImpl:167 calling notifyIterationEnds on org.matsim.analysis.ModeStatsControlerListener
2022-03-04T16:53:16,341  INFO ModeStatsControlerListener:144 Mode shares over all 37675.0 trips found. MainModeIdentifier: class org.matsim.core.router.RoutingModeMainModeIdentifier
2022-03-04T16:53:16,341  INFO ModeStatsControlerListener:151 -- mode share of mode taxi = 1.0
2022-03-04T16:53:16,343  INFO ControlerListenerManagerImpl:167 calling notifyIterationEnds on org.matsim.analysis.ScoreStatsControlerListener
2022-03-04T16:53:16,360  INFO ScoreStatsControlerListener:181 -- avg. score of the executed plan of each agent: 140.83566804408625
2022-03-04T16:53:16,361  INFO ScoreStatsControlerListener:182 -- avg. score of the worst plan of each agent: 140.83566804408625
2022-03-04T16:53:16,361  INFO ScoreStatsControlerListener:183 -- avg. of the avg. plan score per agent: 140.83566804408625
2022-03-04T16:53:16,361  INFO ScoreStatsControlerListener:184 -- avg. score of the best plan of each agent: 140.83566804408625
2022-03-04T16:53:16,365  INFO ControlerListenerManagerImpl:167 calling notifyIterationEnds on org.matsim.analysis.IterationTravelStatsControlerListener
2022-03-04T16:53:16,407  INFO TravelDistanceStats:143 -- average leg distance per plan (executed plans only): 8725.496855489735 meters
2022-03-04T16:53:16,409  INFO TravelDistanceStats:144 average leg distance per Person (executed plans only): 8725.496855489735 meters (statistic on all 37675 legs which have a finite distance)
2022-03-04T16:53:16,409  INFO TravelDistanceStats:145 -- average trip distance per plan (executed plans only): 8725.496855489735 meters
2022-03-04T16:53:16,409  INFO TravelDistanceStats:146 average trip distance per Person (executed plans only): 8725.496855489735 meters (statistic on all 37675 trips which have a finite distance)
2022-03-04T16:53:16,410  INFO TravelDistanceStats:147 (TravelDistanceStats takes an average over all legs where the simulation reports travelled (network) distances
2022-03-04T16:53:16,410  INFO TravelDistanceStats:148 (and teleported legs whose route contains a distance.)
2022-03-04T16:53:18,507  INFO ControlerListenerManagerImpl:167 calling notifyIterationEnds on org.matsim.analysis.LegHistogramListener
2022-03-04T16:53:18,517  INFO LegHistogramListener:72 number of legs:	37675	100%
2022-03-04T16:53:18,519  INFO LegHistogramListener:79 number of taxi legs:	37675	100.0%
2022-03-04T16:53:18,833  INFO ControlerListenerManagerImpl:167 calling notifyIterationEnds on org.matsim.analysis.LinkStatsControlerListener
2022-03-04T16:53:18,833  INFO ControlerListenerManagerImpl:171 [it.0] all ControlerIterationEndsListeners called.
2022-03-04T16:53:19,027  INFO AbstractController:181 ### ITERATION 0 ENDS
2022-03-04T16:53:19,027  INFO AbstractController:182 ###################################################
2022-03-04T16:53:19,028  INFO MatsimRuntimeModifications:79 S H U T D O W N   ---   start shutdown.
2022-03-04T16:53:19,030  INFO ControlerListenerManagerImpl:121 calling notifyShutdown on org.matsim.core.controler.corelisteners.EventsHandlingImpl
2022-03-04T16:53:19,030  INFO ControlerListenerManagerImpl:121 calling notifyShutdown on org.matsim.core.controler.corelisteners.DumpDataAtEndImpl
2022-03-04T16:53:19,058  INFO Counter:69 [PopulationWriter] dumped person # 1
2022-03-04T16:53:19,058  INFO Counter:69 [PopulationWriter] dumped person # 2
2022-03-04T16:53:19,058  INFO Counter:69 [PopulationWriter] dumped person # 4
2022-03-04T16:53:19,059  INFO Counter:69 [PopulationWriter] dumped person # 8
2022-03-04T16:53:19,059  INFO Counter:69 [PopulationWriter] dumped person # 16
2022-03-04T16:53:19,059  INFO Counter:69 [PopulationWriter] dumped person # 32
2022-03-04T16:53:19,060  INFO Counter:69 [PopulationWriter] dumped person # 64
2022-03-04T16:53:19,062  INFO Counter:69 [PopulationWriter] dumped person # 128
2022-03-04T16:53:19,065  INFO Counter:69 [PopulationWriter] dumped person # 256
2022-03-04T16:53:19,070  INFO Counter:69 [PopulationWriter] dumped person # 512
2022-03-04T16:53:19,080  INFO Counter:69 [PopulationWriter] dumped person # 1024
2022-03-04T16:53:19,098  INFO Counter:69 [PopulationWriter] dumped person # 2048
2022-03-04T16:53:19,138  INFO Counter:69 [PopulationWriter] dumped person # 4096
2022-03-04T16:53:19,216  INFO Counter:69 [PopulationWriter] dumped person # 8192
2022-03-04T16:53:19,380  INFO Counter:69 [PopulationWriter] dumped person # 16384
2022-03-04T16:53:19,660  INFO Counter:69 [PopulationWriter] dumped person # 32768
2022-03-04T16:53:19,759  INFO PopulationWriter:144 Population written to: output/Chicago190701_scooter3333/output_plans.xml.gz
2022-03-04T16:53:19,760  INFO Counter:74 [PopulationWriter] dumped person # 37675
2022-03-04T16:53:19,762  INFO NetworkWriter:69 Writing network to file: output/Chicago190701_scooter3333/output_network.xml.gz...
2022-03-04T16:53:23,098  INFO NetworkWriter:72 done.
2022-03-04T16:53:23,109  INFO Config:572 setting context to [file:/Users/hidenaga/IdeaProjects/matsim-maas2/]
2022-03-04T16:53:23,119  INFO Config:572 setting context to [file:/Users/hidenaga/IdeaProjects/matsim-maas2/]
2022-03-04T16:53:23,124  INFO Config:572 setting context to [file:/Users/hidenaga/IdeaProjects/matsim-maas2/]
2022-03-04T16:53:23,128  INFO Config:572 setting context to [file:/Users/hidenaga/IdeaProjects/matsim-maas2/]
2022-03-04T16:53:23,135  INFO Config:572 setting context to [file:/Users/hidenaga/IdeaProjects/matsim-maas2/]
2022-03-04T16:53:23,139  INFO Config:572 setting context to [file:/Users/hidenaga/IdeaProjects/matsim-maas2/]
2022-03-04T16:53:23,142  INFO Config:572 setting context to [file:/Users/hidenaga/IdeaProjects/matsim-maas2/]
2022-03-04T16:53:23,146  INFO Config:572 setting context to [file:/Users/hidenaga/IdeaProjects/matsim-maas2/]
2022-03-04T16:53:23,149  INFO Config:572 setting context to [file:/Users/hidenaga/IdeaProjects/matsim-maas2/]
2022-03-04T16:53:23,153  INFO Config:572 setting context to [file:/Users/hidenaga/IdeaProjects/matsim-maas2/]
2022-03-04T16:53:23,157  INFO Config:572 setting context to [file:/Users/hidenaga/IdeaProjects/matsim-maas2/]
2022-03-04T16:53:23,160  INFO Config:572 setting context to [file:/Users/hidenaga/IdeaProjects/matsim-maas2/]
2022-03-04T16:53:23,165  INFO Config:572 setting context to [file:/Users/hidenaga/IdeaProjects/matsim-maas2/]
2022-03-04T16:53:23,168  INFO Config:572 setting context to [file:/Users/hidenaga/IdeaProjects/matsim-maas2/]
2022-03-04T16:53:23,172  INFO Config:572 setting context to [file:/Users/hidenaga/IdeaProjects/matsim-maas2/]
2022-03-04T16:53:23,176  INFO Config:572 setting context to [file:/Users/hidenaga/IdeaProjects/matsim-maas2/]
2022-03-04T16:53:23,190  INFO Config:572 setting context to [file:/Users/hidenaga/IdeaProjects/matsim-maas2/]
2022-03-04T16:53:23,194  INFO Config:572 setting context to [file:/Users/hidenaga/IdeaProjects/matsim-maas2/]
2022-03-04T16:53:23,199  INFO Config:572 setting context to [file:/Users/hidenaga/IdeaProjects/matsim-maas2/]
2022-03-04T16:53:23,203  INFO Config:572 setting context to [file:/Users/hidenaga/IdeaProjects/matsim-maas2/]
2022-03-04T16:53:23,214  INFO Config:572 setting context to [file:/Users/hidenaga/IdeaProjects/matsim-maas2/]
2022-03-04T16:53:23,217  INFO Config:572 setting context to [file:/Users/hidenaga/IdeaProjects/matsim-maas2/]
2022-03-04T16:53:23,221  INFO Config:572 setting context to [file:/Users/hidenaga/IdeaProjects/matsim-maas2/]
2022-03-04T16:53:23,225  INFO Config:572 setting context to [file:/Users/hidenaga/IdeaProjects/matsim-maas2/]
2022-03-04T16:53:23,229  INFO Config:572 setting context to [file:/Users/hidenaga/IdeaProjects/matsim-maas2/]
2022-03-04T16:53:23,233  INFO Config:572 setting context to [file:/Users/hidenaga/IdeaProjects/matsim-maas2/]
2022-03-04T16:53:23,236  INFO Config:572 setting context to [file:/Users/hidenaga/IdeaProjects/matsim-maas2/]
2022-03-04T16:53:23,240  INFO Config:572 setting context to [file:/Users/hidenaga/IdeaProjects/matsim-maas2/]
2022-03-04T16:53:23,250  INFO MatsimVehicleWriter:54 about to write vehicles to: output/Chicago190701_scooter3333/output_vehicles.xml.gz
2022-03-04T16:53:23,250  INFO VehicleWriterV2:63 about to write vehicles to: output/Chicago190701_scooter3333/output_vehicles.xml.gz
2022-03-04T16:53:23,364  INFO MatsimVehicleWriter:54 about to write vehicles to: output/Chicago190701_scooter3333/output_allVehicles.xml.gz
2022-03-04T16:53:23,364  INFO VehicleWriterV2:63 about to write vehicles to: output/Chicago190701_scooter3333/output_allVehicles.xml.gz
2022-03-04T16:53:23,370  INFO HouseholdsWriterV10:66 about to write  households to: output/Chicago190701_scooter3333/output_households.xml.gz
2022-03-04T16:53:23,371  INFO Counter:74 [HouseholdsWriter] wrote household # 0
2022-03-04T16:53:23,495  INFO ControlerListenerManagerImpl:126 calling notifyShutdown on org.matsim.analysis.ScoreStatsControlerListener
2022-03-04T16:53:23,496  INFO ControlerListenerManagerImpl:126 calling notifyShutdown on org.matsim.analysis.IterationTravelStatsControlerListener
2022-03-04T16:53:23,496  INFO IterationTravelStatsControlerListener:104 Writing all Person and Attributes to personscsv
2022-03-04T16:53:23,668  INFO IterationTravelStatsControlerListener:148 ...done
2022-03-04T16:53:23,668  INFO ControlerListenerManagerImpl:126 calling notifyShutdown on org.matsim.contrib.taxi.util.stats.TaxiStatsDumper
2022-03-04T16:53:23,669  INFO ControlerListenerManagerImpl:126 calling notifyShutdown on org.matsim.contrib.dvrp.fleet.FleetControlerListener
2022-03-04T16:53:23,676  INFO ControlerListenerManagerImpl:129 all ControlerShutdownListeners called.
2022-03-04T16:53:23,676  INFO MatsimRuntimeModifications:102 S H U T D O W N   ---   shutdown completed.
2022-03-04T16:53:23,676  INFO OutputDirectoryLogging:170 closing the logfile, i.e. messages sent to the logger after this message are not written to the logfile.
