2022-03-04T13:22:49,695  INFO Gbl:63 JVM: 17.0.1; Oracle Corporation; mixed mode, sharing; 64-bit
2022-03-04T13:22:49,696  INFO Gbl:67 OS: Mac OS X; 11.6; x86_64
2022-03-04T13:22:49,696  INFO Gbl:70 CPU cores: 8
2022-03-04T13:22:49,698  INFO Gbl:71 max. Memory: 4096.0MB (4294967296B)
2022-03-04T13:22:49,699  INFO Gbl:109 MATSim-Build: r39825bc6085a744848224c8d615c2dec92341cf1 (2021-09-17 10:13:01)
2022-03-04T13:22:49,702  INFO ControlerListenerManagerImpl:107 calling notifyStartup on org.matsim.guice.DependencyGraphControlerListener
2022-03-04T13:22:49,703  INFO MemoryObserver:41 used RAM: 782 MB  free: 381 MB  total: 1164 MB
2022-03-04T13:22:49,806  INFO ControlerListenerManagerImpl:107 calling notifyStartup on org.matsim.counts.CountsControlerListener
2022-03-04T13:22:49,806  INFO ControlerListenerManagerImpl:107 calling notifyStartup on org.matsim.analysis.ModeStatsControlerListener
2022-03-04T13:22:49,806  INFO ControlerListenerManagerImpl:107 calling notifyStartup on org.matsim.analysis.ScoreStatsControlerListener
2022-03-04T13:22:49,807  INFO ControlerListenerManagerImpl:110 all ControlerStartupListeners called.
2022-03-04T13:22:49,808  INFO ControlerUtils:79 config dump before iterations start
2022-03-04T13:22:49,828  INFO ControlerUtils:83 

<?xml version="1.0" encoding="UTF-8"?>
<!DOCTYPE config SYSTEM "http://www.matsim.org/files/dtd/config_v2.dtd">
<config>
	<module name="JDEQSim" >
		<param name="carSize" value="7.5" />
		<param name="endTime" value="undefined" />
		<param name="flowCapacityFactor" value="1.0" />
		<param name="gapTravelSpeed" value="15.0" />
		<param name="minimumInFlowCapacity" value="1800.0" />
		<param name="squeezeTime" value="1800.0" />
		<param name="storageCapacityFactor" value="1.0" />
	</module>
	<module name="TimeAllocationMutator" >
		<!-- Default:true; Defines whether time mutation changes an activity's duration. -->
		<param name="mutationAffectsDuration" value="true" />
		<!-- Default:1800.0; Defines how many seconds a time mutation can maximally shift a time. -->
		<param name="mutationRange" value="1800.0" />
	</module>
	<module name="changeMode" >
		<!-- Defines whether car availability is considered be considered or not. An agent has no car only if it has no license, or never access to a car. Default: true -->
		<param name="ignoreCarAvailability" value="true" />
		<!-- Defines the mode switch behavior. Possible values [fromAllModesToSpecifiedModes, fromSpecifiedModesToSpecifiedModes] Default: fromSpecifiedModesToSpecifiedModes. -->
		<param name="modeSwitchBehavior" value="fromSpecifiedModesToSpecifiedModes" />
		<!-- Defines all the modes available, including chain-based modes, seperated by commas -->
		<param name="modes" value="car,pt" />
	</module>
	<module name="controler" >
		<!-- Compression algorithm to use when writing out data to files. Possible values: [none, gzip, lz4, zst] -->
		<param name="compressionType" value="gzip" />
		<!-- Sets whether graphs showing some analyses should automatically be generated during the simulation. The generation of graphs usually takes a small amount of time that does not have any weight in big simulations, but add a significant overhead in smaller runs or in test cases where the graphical output is not even requested. -->
		<param name="createGraphs" value="true" />
		<!-- true if at the end of a run, plans, network, config etc should be dumped to a file -->
		<param name="dumpDataAtEnd" value="true" />
		<!-- Default=false. If enabled, the router takes travel times needed for turning moves into account. Cannot be used if the (Fast)AStarLandmarks routing or TravelTimeCalculator.separateModes is enabled. -->
		<param name="enableLinkToLinkRouting" value="false" />
		<!-- Default=xml; Specifies the file format for writing events. Currently supported: [xml, pb, json]
		Multiple values can be specified separated by commas (','). -->
		<param name="eventsFileFormat" value="xml" />
		<!-- Default=0. First Iteration of a simulation. -->
		<param name="firstIteration" value="0" />
		<!-- Default=1000. Last Iteration of a simulation. -->
		<param name="lastIteration" value="0" />
		<!-- Defines which mobility simulation will be used. Currently supported: qsim JDEQSim hermes 
		Depending on the chosen mobsim, you'll have to add additional config modules to configure the corresponding mobsim.
		For 'qsim', add a module 'qsim' to the config. -->
		<param name="mobsim" value="qsim" />
		<param name="outputDirectory" value="output/Chicago190701_scooter6666" />
		<!-- Possible values: failIfDirectoryExists, overwriteExistingFiles, deleteDirectoryIfExists -->
		<param name="overwriteFiles" value="deleteDirectoryIfExists" />
		<!-- The type of routing (least cost path) algorithm used, may have the values: [Dijkstra, AStarLandmarks, FastDijkstra, FastAStarLandmarks, SpeedyALT] -->
		<param name="routingAlgorithmType" value="AStarLandmarks" />
		<!-- An identifier for the current run which is used as prefix for output files and mentioned in output xml files etc. -->
		<param name="runId" value="null" />
		<!-- Comma-separated list of visualizer output file formats. `transims', `googleearth', and `otfvis'. -->
		<param name="snapshotFormat" value="" />
		<!-- iterationNumber % writeEventsInterval == 0 defines in which iterations events are written to a file. `0' disables events writing completely. -->
		<param name="writeEventsInterval" value="10" />
		<!-- iterationNumber % writePlansInterval == 0 defines (hopefully) in which iterations plans are written to a file. `0' disables plans writing completely.  Some plans in early iterations are always written -->
		<param name="writePlansInterval" value="10" />
		<!-- iterationNumber % writeSnapshotsInterval == 0 defines in which iterations snapshots are written to a file. `0' disables snapshots writing completely -->
		<param name="writeSnapshotsInterval" value="1" />
		<!-- iterationNumber % writeEventsInterval == 0 defines in which iterations trips CSV are written to a file. `0' disables trips writing completely. -->
		<param name="writeTripsInterval" value="10" />
	</module>
	<module name="counts" >
		<!-- Transport modes that will be respected for the counts comparison. 'car' is default, which includes also bussed from the pt simulation module. Use this parameter in combination with 'filterModes' = true! -->
		<param name="analyzedModes" value="car" />
		<!-- Specifies over how many iterations the link volumes should be averaged that are used for the counts comparison. Use 1 or 0 to only use the link volumes of a single iteration. This values cannot be larger than the value specified for writeCountsInterval -->
		<param name="averageCountsOverIterations" value="5" />
		<!-- factor by which to re-scale the simulated values.  necessary when simulation runs with something different from 100%.  needs to be adapted manually -->
		<param name="countsScaleFactor" value="1.0" />
		<!-- distance to distanceFilterCenterNode to include counting stations. The unit of distance is the Euclidean distance implied by the coordinate system -->
		<param name="distanceFilter" value="null" />
		<!-- node id for center node of distance filter -->
		<param name="distanceFilterCenterNode" value="null" />
		<!-- If true, link counts from legs performed on modes not included in the 'analyzedModes' parameter are ignored. -->
		<param name="filterModes" value="false" />
		<!-- The Coordinates Reference System in which the coordinates are expressed in the input file. At import, the coordinates will be converted to the coordinate system defined in "global", and willbe converted back at export. If not specified, no conversion happens. -->
		<param name="inputCRS" value="null" />
		<!-- input file name to counts package -->
		<param name="inputCountsFile" value="null" />
		<!-- possible values: `html', `kml', `txt', `all' -->
		<param name="outputformat" value="txt" />
		<!-- Specifies how often the counts comparison should be calculated and written. -->
		<param name="writeCountsInterval" value="10" />
	</module>
	<module name="dvrp" >
		<param name="initialTravelTimesFile" value="null" />
		<!-- Mode of which the network will be used for throwing events and hence calculating travel times. Default is car. -->
		<param name="mobsimMode" value="car" />
		<!-- Set of modes of which the network will be used for DVRP travel time estimation and routing DVRP vehicles. Each specific DVRP mode may use a subnetwork of this network for routing vehicles (e.g. DRT buses travelling only along a specified links or serving a limited area). Default is "car" (i.e. single-element set of modes), i.e. the car network is used. Empty value "" (i.e. empty set of modes) means no network filtering, i.e. the original scenario.network is used -->
		<param name="networkModes" value="car" />
		<!-- Used for OFFLINE estimation of travel times for VrpOptimizer by means of the exponential moving average. The weighting decrease, alpha, must be in (0,1]. We suggest small values of alpha, e.g. 0.05. The averaging starts from the initial travel time estimates. If not provided, the free-speed TTs is used as the initial estimates -->
		<param name="travelTimeEstimationAlpha" value="0.05" />
		<!-- Used for ONLINE estimation of travel times for VrpOptimizer by combining WithinDayTravelTime and DvrpOfflineTravelTimeEstimator. The beta coefficient is provided in seconds and should be either 0 (no online estimation) or positive (mixed online-offline estimation). For 'beta = 0', only the offline estimate is used: 'onlineTT(t) = offlineTT(t)', where 'offlineTT(t)' in the offline estimate for TT at time 't', For 'beta > 0', estimating future TTs at time 't', uses the currently observed TT to correct the offline estimates is made: where 'currentTT' is the currently observed TT, and 'correction = min(1, max(0, 1 - (time - currentTime) / beta))' The rule is that correction decreases linearly from 1 (when 'time = currentTime') to 0 (when 'time = currentTime + beta' For 'time > currentTime + beta' correction is 0, whereas if 'time < currentTime' it is 1. If beta is sufficiently large, 'beta >> 0', only the currently observed TT is used. -->
		<param name="travelTimeEstimationBeta" value="0.0" />
		<parameterset type="travelTimeMatrix" >
			<!-- size of square cells (meters) used for computing travel time matrix. Default value is 200 m -->
			<param name="cellSize" value="200" />
		</parameterset>
	</module>
	<module name="facilities" >
		<!-- This defines how facilities should be created. Possible values: none fromFile setInScenario onePerActivityLinkInPlansFile onePerActivityLinkInPlansFileExceptWhenCoordinatesAreGiven onePerActivityLocationInPlansFile  -->
		<param name="facilitiesSource" value="none" />
		<!-- A prefix to be used for auto-generated IDs. -->
		<param name="idPrefix" value="f_auto_" />
		<!-- The Coordinates Reference System in which the coordinates are expressed in the input file. At import, the coordinates will be converted to the coordinate system defined in "global", and willbe converted back at export. If not specified, no conversion happens. -->
		<param name="inputCRS" value="null" />
		<param name="inputFacilitiesFile" value="null" />
		<param name="inputFacilityAttributesFile" value="null" />
		<param name="insistingOnUsingDeprecatedFacilitiesAttributeFile" value="false" />
	</module>
	<module name="global" >
		<param name="coordinateSystem" value="Atlantis" />
		<param name="defaultDelimiter" value=";" />
		<param name="insistingOnDeprecatedConfigVersion" value="true" />
		<!-- "global" number of threads.  This number is used, e.g., for replanning, but NOT in QSim.  This can typically be set to as many cores as you have available, or possibly even slightly more. -->
		<param name="numberOfThreads" value="2" />
		<param name="randomSeed" value="4711" />
	</module>
	<module name="hermes" >
		<!-- Simulation End Time -->
		<param name="endTime" value="30:00:00" />
		<param name="flowCapacityFactor" value="1.0" />
		<param name="mainMode" value="car" />
		<param name="storageCapacityFactor" value="1.0" />
		<!-- time in seconds.  Time after which the frontmost vehicle on a link is called `stuck' if it does not move. Set to Integer.MAX_VALUE to disable this behavior -->
		<param name="stuckTime" value="10" />
		<!-- treats PT as deterministic. PT vehicles will run with a steady speed. Should be used with separate network layers for PT and other network modes. -->
		<param name="useDeterministicPt" value="false" />
	</module>
	<module name="households" >
		<param name="inputFile" value="null" />
		<param name="inputHouseholdAttributesFile" value="null" />
		<param name="insistingOnUsingDeprecatedHouseholdsAttributeFile" value="false" />
	</module>
	<module name="linkStats" >
		<!-- Specifies over how many iterations the link volumes should be averaged that are used for the link statistics. Use 1 or 0 to only use the link volumes of a single iteration. This values cannot be larger than the value specified for writeLinkStatsInterval -->
		<param name="averageLinkStatsOverIterations" value="5" />
		<!-- Specifies how often the link stats should be calculated and written. Use 0 to disable the generation of link stats. -->
		<param name="writeLinkStatsInterval" value="10" />
	</module>
	<module name="multiModeTaxi" >
		<parameterset type="taxi" >
			<!-- Specifies whether the simulation should interrupt if not all requests were performed when an interation ends. Otherwise, a warning is given. True by default. -->
			<param name="breakIfNotAllRequestsServed" value="true" />
			<!-- If true, the startLink is changed to last link in the current schedule, so the taxi starts the next day at the link where it stopped operating the day before. False by default. -->
			<param name="changeStartLinkToLastLinkInSchedule" value="false" />
			<!-- If false, the drop-off location remains unknown to the optimizer and scheduler until the end of pickup. False by default. -->
			<param name="destinationKnown" value="false" />
			<!-- If true, detailed hourly taxi stats are dumped after each iteration. False by default. -->
			<param name="detailedStats" value="true" />
			<!-- Dropoff duration. Must be positive. -->
			<param name="dropoffDuration" value="60.0" />
			<!-- Mode which will be handled by PassengerEngine and VrpOptimizer (passengers'/customers' perspective) -->
			<param name="mode" value="taxi" />
			<!-- Number of threads used for parallel computation of paths (occupied drive tasks). 4-6 threads is usually enough. It's recommended to specify a higher number than that if possible - of course, threads will probably be not 100% busy. Default value is the number of cores available to JVM -->
			<param name="numberOfThreads" value="8" />
			<!-- If true, vehicles are (GPS-like) monitored while moving. This helps in getting more accurate estimates on the time of arrival. Online tracking is necessary for vehicle diversion. False by default. -->
			<param name="onlineVehicleTracker" value="false" />
			<!-- Pickup duration. Must be positive. -->
			<param name="pickupDuration" value="120.0" />
			<!-- An XML file specifying the taxi fleet. The file format according to dvrp_vehicles_v1.dtd. If not provided, the vehicle specifications will be created from matsim vehicle file or provided via a custom binding. See FleetModule. -->
			<param name="taxisFile" value="Chicago_vehicles.xml" />
			<!-- If true, writes time profiles of vehicle statuses (i.e. current task type) and the number of unplanned requests are written to a text file (taxi_status_time_profiles) and saved as plots. False by default. -->
			<param name="timeProfiles" value="true" />
			<!-- Limit the operation of vehicles to links (of the 'dvrp_routing' network) with 'allowedModes' containing this 'mode'. For backward compatibility, the value is set to false by default -- this means that the vehicles are allowed to operate on all links of the 'dvrp_routing' network. The 'dvrp_routing' is defined by DvrpConfigGroup.networkModes) -->
			<param name="useModeFilteredSubnetwork" value="false" />
			<!-- If true, vehicles can be diverted during empty trips. Requires online tracking. False by default. -->
			<param name="vehicleDiversion" value="false" />
			<parameterset type="AssignmentTaxiOptimizer" >
				<!-- Specifies the formula used to calculate assgnment cost. See comments in TaxiToRequestAssignmentCostProvider. The default mode is ARRIVAL_TIME (used fro simulating taxis in Berlin). -->
				<param name="mode" value="ARRIVAL_TIME" />
				<!-- Limits the number of open requests considered in the cost matrix calculation to 'nearestRequestsLimit' nearest to a given vehicle (straight line). Used to speed up computations. Depending on the size of fleet, values 20 to 40 make a good trade-off between computational speed and quality of results. To turn off this feature - specify a sufficiently big number (not recommended). The default value is 40 (used for simulating taxis in Berlin). -->
				<param name="nearestRequestsLimit" value="40" />
				<!-- Limits the number of available vehicles considered in the cost matrix calculation to 'nearestRequestsLimit' nearest to a given request (straight line). Used to speed up computations. Depending on the size of fleet, values 20 to 40 make a good trade-off between computational speed and quality of results. To turn off this feature - specify a sufficiently big number (not recommended). The default value is 40 (used for simulating taxis in Berlin). -->
				<param name="nearestVehiclesLimit" value="40" />
				<!-- Specifies the cost for vehicle-request pairs not included in the matrix calculation. Should be high enough to prevent choosing such assignments. The default value is 48 * 3600 seconds (2 days) (used for simulating taxis in Berlin). -->
				<param name="nullPathCost" value="172800.0" />
				<!-- Specifies how often the reoptimization algorithm is executed. Must be a positive integer value. Smaller values mean lower reaction time. However, algorithms that find more than 1 taxi-request matching in each run, such as AssignmentTaxiOptimizer, may produce better results if new requests are buffered over a longer period, e.g. 10 or 30 seconds. Therefore, the default value is algorithm dependent. -->
				<param name="reoptimizationTimeStep" value="10" />
				<!-- Vehicle planning horizon in the case of oversupply. Only vehicles available within the time horizon are considered in the assignment procedure. The value should not be smaller than 'reoptimizationTimeStep'. The default value is 120 seconds (used for simulating taxis in Berlin). Discussion: M. Maciejewski, J. Bischoff, K. Nagel: An assignment-based approach to efficient real-time city-scale taxi dispatching. IEEE Intelligent Systems, 2016. -->
				<param name="vehPlanningHorizonOversupply" value="120.0" />
				<!-- Vehicle planning horizon in the case of undersupply. Only vehicles available within the time horizon are considered in the assignment procedure. The value should not be smaller than 'reoptimizationTimeStep'. The default value is 30 seconds (used for simulating taxis in Berlin). Discussion: M. Maciejewski, J. Bischoff, K. Nagel: An assignment-based approach to efficient real-time city-scale taxi dispatching. IEEE Intelligent Systems, 2016. -->
				<param name="vehPlanningHorizonUndersupply" value="30.0" />
			</parameterset>
			<parameterset type="taxifare" >
				<!-- Basefare per trip (positive or zero value) -->
				<param name="basefare" value="0.0" />
				<!-- Daily subscription fee (positive or zero value) -->
				<param name="dailySubscriptionFee" value="0.0" />
				<!-- taxi fare per meter (positive or zero value) -->
				<param name="distanceFare_m" value="0.0" />
				<!-- Minimum fare per trip (paid instead of the sum of base, time and distance fare if that sum would be lower than the minimum fare, positive or zero value). -->
				<param name="minFarePerTrip" value="0.0" />
				<!-- taxi fare per hour (positive or zero value) -->
				<param name="timeFare_h" value="0.0" />
			</parameterset>
		</parameterset>
	</module>
	<module name="network" >
		<!-- The Coordinates Reference System in which the coordinates are expressed in the input file. At import, the coordinates will be converted to the coordinate system defined in "global", and willbe converted back at export. If not specified, no conversion happens. -->
		<param name="inputCRS" value="null" />
		<param name="inputChangeEventsFile" value="null" />
		<param name="inputNetworkFile" value="Chicago_network.xml" />
		<param name="laneDefinitionsFile" value="null" />
		<param name="timeVariantNetwork" value="false" />
	</module>
	<module name="otfvis" >
		<!-- The (initial) size of the agents.  Only a range of numbers is allowed, otherwise otfvis aborts rather ungracefully, or displays no agents at all. -->
		<param name="agentSize" value="120.0" />
		<!-- coloring scheme for otfvis.  Currently (2012) allowed values: standard bvg bvg2 byId gtfs taxicab infection -->
		<param name="coloringScheme" value="taxicab" />
		<!-- If non-moving items (e.g. agents at activities, at bus stops, etc.) should be showed.  May affect all non-moving items. -->
		<param name="drawNonMovingItems" value="true" />
		<param name="drawTransitFacilities" value="true" />
		<param name="drawTransitFacilityIds" value="true" />
		<param name="leftMouseFunc" value="Zoom" />
		<!-- The (initial) width of the links of the network. Use positive floating point values. -->
		<param name="linkWidth" value="30.0" />
		<!-- Link width is proportional to `numberOfLanes' or to `capacity'. -->
		<param name="linkwidthIsProportionalTo" value="numberOfLanes" />
		<!-- URL to get WMS tiles from. For a local GeoServer instance, use http://localhost:8080/geoserver/wms?service=WMS& -->
		<param name="mapBaseURL" value="" />
		<!-- The WMS layer to display. For GeoServer and a layer called clipped in workspace mz, use mz:clipped -->
		<param name="mapLayer" value="" />
		<!-- Render everything on top of map tiles. Default: From tiles.openstreetmap.org -->
		<param name="mapOverlayMode" value="false" />
		<param name="middleMouseFunc" value="Pan" />
		<param name="rightMouseFunc" value="Select" />
		<param name="showTeleportation" value="false" />
	</module>
	<module name="parallelEventHandling" >
		<!-- Estimated number of events during mobsim run. An optional optimization hint for the framework. -->
		<param name="estimatedNumberOfEvents" value="null" />
		<!-- Size of the events Queue. Increase for very large scenarios -->
		<param name="eventsQueueSize" value="131072" />
		<!-- Number of threads for parallel events handler. _null_ means the framework decides by itself. 0 is currently not possible. -->
		<param name="numberOfThreads" value="null" />
		<!-- If enabled, each event handler is assigned to its own thread. Note that enabling this feature disabled the numberOfThreads option! This feature is still experimental! -->
		<param name="oneThreadPerHandler" value="false" />
		<!-- If enabled, it is ensured that all events that are created during a time step of the mobility simulation are processed before the next time step is simulated. E.g. neccessary when within-day replanning is used. -->
		<param name="synchronizeOnSimSteps" value="true" />
	</module>
	<module name="planCalcScore" >
		<!-- logit model scale parameter. default: 1.  Has name and default value for historical reasons (see Bryan Raney's phd thesis). -->
		<param name="BrainExpBeta" value="1.0" />
		<param name="PathSizeLogitBeta" value="1.0" />
		<!-- fraction of iterations at which MSA score averaging is started. The matsim theory department suggests to use this together with switching off choice set innovation (where a similar switch exists), but it has not been tested yet. -->
		<param name="fractionOfIterationsToStartScoreMSA" value="null" />
		<!-- new_score = (1-learningRate)*old_score + learningRate * score_from_mobsim.  learning rates close to zero emulate score averaging, but slow down initial convergence -->
		<param name="learningRate" value="1.0" />
		<!-- There used to be a plateau between duration=0 and duration=zeroUtilityDuration. This caused durations to evolve to zero once they were below zeroUtilityDuration, causing problems.  Only use this switch if you need to be backwards compatible with some old results.  (changed nov'13) -->
		<param name="usingOldScoringBelowZeroUtilityDuration" value="false" />
		<!-- write a plans file in each iteration directory which contains what each agent actually did, and the score it received. -->
		<param name="writeExperiencedPlans" value="false" />
		<parameterset type="scoringParameters" >
			<param name="earlyDeparture" value="-0.0" />
			<param name="lateArrival" value="-18.0" />
			<param name="marginalUtilityOfMoney" value="1.0" />
			<param name="performing" value="6.0" />
			<param name="subpopulation" value="null" />
			<param name="utilityOfLineSwitch" value="-1.0" />
			<param name="waiting" value="-0.0" />
			<param name="waitingPt" value="-6.0" />
			<parameterset type="activityParams" >
				<param name="activityType" value="car interaction" />
				<param name="closingTime" value="undefined" />
				<param name="earliestEndTime" value="undefined" />
				<param name="latestStartTime" value="undefined" />
				<param name="minimalDuration" value="undefined" />
				<param name="openingTime" value="undefined" />
				<param name="priority" value="1.0" />
				<param name="scoringThisActivityAtAll" value="false" />
				<!-- typical duration of activity.  needs to be defined and non-zero.  in sec. -->
				<param name="typicalDuration" value="undefined" />
				<!-- method to compute score at typical duration.  Options: | uniform | relative | Use uniform for backwards compatibility (all activities same score; higher proba to drop long acts). -->
				<param name="typicalDurationScoreComputation" value="relative" />
			</parameterset>
			<parameterset type="activityParams" >
				<param name="activityType" value="pt interaction" />
				<param name="closingTime" value="undefined" />
				<param name="earliestEndTime" value="undefined" />
				<param name="latestStartTime" value="undefined" />
				<param name="minimalDuration" value="undefined" />
				<param name="openingTime" value="undefined" />
				<param name="priority" value="1.0" />
				<param name="scoringThisActivityAtAll" value="false" />
				<param name="typicalDuration" value="undefined" />
				<param name="typicalDurationScoreComputation" value="relative" />
			</parameterset>
			<parameterset type="activityParams" >
				<param name="activityType" value="bike interaction" />
				<param name="closingTime" value="undefined" />
				<param name="earliestEndTime" value="undefined" />
				<param name="latestStartTime" value="undefined" />
				<param name="minimalDuration" value="undefined" />
				<param name="openingTime" value="undefined" />
				<param name="priority" value="1.0" />
				<param name="scoringThisActivityAtAll" value="false" />
				<param name="typicalDuration" value="undefined" />
				<param name="typicalDurationScoreComputation" value="relative" />
			</parameterset>
			<parameterset type="activityParams" >
				<param name="activityType" value="drt interaction" />
				<param name="closingTime" value="undefined" />
				<param name="earliestEndTime" value="undefined" />
				<param name="latestStartTime" value="undefined" />
				<param name="minimalDuration" value="undefined" />
				<param name="openingTime" value="undefined" />
				<param name="priority" value="1.0" />
				<param name="scoringThisActivityAtAll" value="false" />
				<param name="typicalDuration" value="undefined" />
				<param name="typicalDurationScoreComputation" value="relative" />
			</parameterset>
			<parameterset type="activityParams" >
				<param name="activityType" value="taxi interaction" />
				<param name="closingTime" value="undefined" />
				<param name="earliestEndTime" value="undefined" />
				<param name="latestStartTime" value="undefined" />
				<param name="minimalDuration" value="undefined" />
				<param name="openingTime" value="undefined" />
				<param name="priority" value="1.0" />
				<param name="scoringThisActivityAtAll" value="false" />
				<param name="typicalDuration" value="undefined" />
				<param name="typicalDurationScoreComputation" value="relative" />
			</parameterset>
			<parameterset type="activityParams" >
				<param name="activityType" value="other interaction" />
				<param name="closingTime" value="undefined" />
				<param name="earliestEndTime" value="undefined" />
				<param name="latestStartTime" value="undefined" />
				<param name="minimalDuration" value="undefined" />
				<param name="openingTime" value="undefined" />
				<param name="priority" value="1.0" />
				<param name="scoringThisActivityAtAll" value="false" />
				<param name="typicalDuration" value="undefined" />
				<param name="typicalDurationScoreComputation" value="relative" />
			</parameterset>
			<parameterset type="activityParams" >
				<param name="activityType" value="walk interaction" />
				<param name="closingTime" value="undefined" />
				<param name="earliestEndTime" value="undefined" />
				<param name="latestStartTime" value="undefined" />
				<param name="minimalDuration" value="undefined" />
				<param name="openingTime" value="undefined" />
				<param name="priority" value="1.0" />
				<param name="scoringThisActivityAtAll" value="false" />
				<param name="typicalDuration" value="undefined" />
				<param name="typicalDurationScoreComputation" value="relative" />
			</parameterset>
			<parameterset type="activityParams" >
				<param name="activityType" value="dummy" />
				<param name="closingTime" value="undefined" />
				<param name="earliestEndTime" value="undefined" />
				<param name="latestStartTime" value="undefined" />
				<param name="minimalDuration" value="undefined" />
				<param name="openingTime" value="undefined" />
				<param name="priority" value="1.0" />
				<param name="scoringThisActivityAtAll" value="true" />
				<param name="typicalDuration" value="24:00:00" />
				<param name="typicalDurationScoreComputation" value="relative" />
			</parameterset>
			<parameterset type="activityParams" >
				<param name="activityType" value="ride interaction" />
				<param name="closingTime" value="undefined" />
				<param name="earliestEndTime" value="undefined" />
				<param name="latestStartTime" value="undefined" />
				<param name="minimalDuration" value="undefined" />
				<param name="openingTime" value="undefined" />
				<param name="priority" value="1.0" />
				<param name="scoringThisActivityAtAll" value="false" />
				<param name="typicalDuration" value="undefined" />
				<param name="typicalDurationScoreComputation" value="relative" />
			</parameterset>
			<parameterset type="modeParams" >
				<!-- [utils] alternative-specific constant.  Normally per trip, but that is probably buggy for multi-leg trips. -->
				<param name="constant" value="0.0" />
				<!-- [unit_of_money/day] Fixed cost of mode, per day. -->
				<param name="dailyMonetaryConstant" value="0.0" />
				<!-- [utils] daily utility constant. default=0 to be backwards compatible -->
				<param name="dailyUtilityConstant" value="0.0" />
				<!-- [utils/m] utility of traveling (e.g. walking or driving) per m, normally negative.  this is on top of the time (dis)utility. -->
				<param name="marginalUtilityOfDistance_util_m" value="0.0" />
				<!-- [utils/hr] additional marginal utility of traveling.  normally negative.  this comes on top of the opportunity cost of time -->
				<param name="marginalUtilityOfTraveling_util_hr" value="-6.0" />
				<param name="mode" value="car" />
				<!-- [unit_of_money/m] conversion of distance into money. Normally negative. -->
				<param name="monetaryDistanceRate" value="0.0" />
			</parameterset>
			<parameterset type="modeParams" >
				<param name="constant" value="0.0" />
				<param name="dailyMonetaryConstant" value="0.0" />
				<param name="dailyUtilityConstant" value="0.0" />
				<param name="marginalUtilityOfDistance_util_m" value="0.0" />
				<param name="marginalUtilityOfTraveling_util_hr" value="-6.0" />
				<param name="mode" value="pt" />
				<param name="monetaryDistanceRate" value="0.0" />
			</parameterset>
			<parameterset type="modeParams" >
				<param name="constant" value="0.0" />
				<param name="dailyMonetaryConstant" value="0.0" />
				<param name="dailyUtilityConstant" value="0.0" />
				<param name="marginalUtilityOfDistance_util_m" value="0.0" />
				<param name="marginalUtilityOfTraveling_util_hr" value="-6.0" />
				<param name="mode" value="walk" />
				<param name="monetaryDistanceRate" value="0.0" />
			</parameterset>
			<parameterset type="modeParams" >
				<param name="constant" value="0.0" />
				<param name="dailyMonetaryConstant" value="0.0" />
				<param name="dailyUtilityConstant" value="0.0" />
				<param name="marginalUtilityOfDistance_util_m" value="0.0" />
				<param name="marginalUtilityOfTraveling_util_hr" value="-6.0" />
				<param name="mode" value="bike" />
				<param name="monetaryDistanceRate" value="0.0" />
			</parameterset>
			<parameterset type="modeParams" >
				<param name="constant" value="0.0" />
				<param name="dailyMonetaryConstant" value="0.0" />
				<param name="dailyUtilityConstant" value="0.0" />
				<param name="marginalUtilityOfDistance_util_m" value="0.0" />
				<param name="marginalUtilityOfTraveling_util_hr" value="-6.0" />
				<param name="mode" value="ride" />
				<param name="monetaryDistanceRate" value="0.0" />
			</parameterset>
			<parameterset type="modeParams" >
				<param name="constant" value="0.0" />
				<param name="dailyMonetaryConstant" value="0.0" />
				<param name="dailyUtilityConstant" value="0.0" />
				<param name="marginalUtilityOfDistance_util_m" value="0.0" />
				<param name="marginalUtilityOfTraveling_util_hr" value="-6.0" />
				<param name="mode" value="other" />
				<param name="monetaryDistanceRate" value="0.0" />
			</parameterset>
			<parameterset type="modeParams" >
				<param name="constant" value="0.0" />
				<param name="dailyMonetaryConstant" value="0.0" />
				<param name="dailyUtilityConstant" value="0.0" />
				<param name="marginalUtilityOfDistance_util_m" value="0.0" />
				<param name="marginalUtilityOfTraveling_util_hr" value="-6.0" />
				<param name="mode" value="taxi" />
				<param name="monetaryDistanceRate" value="0.0" />
			</parameterset>
		</parameterset>
	</module>
	<module name="plans" >
		<!-- String: minOfDurationAndEndTime tryEndTimeThenDuration endTimeOnly. Anything besides minOfDurationAndEndTime will internally use a different (simpler) version of the TimeAllocationMutator. -->
		<param name="activityDurationInterpretation" value="tryEndTimeThenDuration" />
		<!-- Possible values: reject, useMainModeIdentifier -->
		<param name="handlingOfPlansWithoutRoutingMode" value="reject" />
		<!-- The Coordinates Reference System in which the coordinates are expressed in the input file. At import, the coordinates will be converted to the coordinate system defined in "global", and willbe converted back at export. If not specified, no conversion happens. -->
		<param name="inputCRS" value="null" />
		<param name="inputPersonAttributesFile" value="null" />
		<param name="inputPlansFile" value="Chicago_plans_scooter6666.xml" />
		<param name="insistingOnUsingDeprecatedPersonAttributeFile" value="false" />
		<!-- Defines how routes are stored in memory. Currently supported: LinkNetworkRoute, CompressedNetworkRoute. -->
		<param name="networkRouteType" value="LinkNetworkRoute" />
		<!-- (not tested) will remove plan attributes that are presumably not used, such as activityStartTime. default=false. Use with Caution! -->
		<param name="removingUnnecessaryPlanAttributes" value="false" />
		<!-- Defines how departure times are interpreted in rerouting applications. If set to 'ignoreDelays', the departure time of a trip when routing along a plan will always be the nominal (plan-based) activity end time. If set to 'shiftActivityEndTimes', routing along a plan will accumulate travel times and shift activity end times if necessary -->
		<param name="tripDurationHandling" value="ignoreDelays" />
	</module>
	<module name="planscalcroute" >
		<!-- Defines how access and egress to main mode is simulated. Either of [none, accessEgressModeToLink, walkConstantTimeToLink, accessEgressModeToLinkPlusTimeConstant], Current default=none which means no access or egress trips are simulated. -->
		<param name="accessEgressType" value="none" />
		<!-- Some typical teleportation routing params are set by default, such as for walk and bike.  Setting this switch to "true" will clear them.  Note that this will also clear settings for helper modes such as for non_network_walk -->
		<param name="clearDefaultTeleportedModeParams" value="false" />
		<!-- All the modes for which the router is supposed to generate network routes (like car) -->
		<param name="networkModes" value="car" />
		<!-- strength of the randomness for the utility of money in routing under toll.  Leads to Pareto-optimal route with randomly drawn money-vs-other-attributes tradeoff. Technically the width parameter of a log-normal distribution. 3.0 seems to be a good value.  -->
		<param name="routingRandomness" value="3.0" />
		<parameterset type="teleportedModeParameters" >
			<param name="beelineDistanceFactor" value="1.3" />
			<param name="mode" value="bike" />
			<!-- Free-speed factor for a teleported mode. Travel time = teleportedModeFreespeedFactor * <freespeed car travel time>. Insert a line like this for every such mode. Please do not set teleportedModeFreespeedFactor as well as teleportedModeSpeed for the same mode, but if you do, +teleportedModeFreespeedFactor wins over teleportedModeSpeed. -->
			<param name="teleportedModeFreespeedFactor" value="null" />
			<!-- Speed for a teleported mode. Travel time = (<beeline distance> * beelineDistanceFactor) / teleportedModeSpeed. Insert a line like this for every such mode. -->
			<param name="teleportedModeSpeed" value="4.166666666666667" />
		</parameterset>
		<parameterset type="teleportedModeParameters" >
			<param name="beelineDistanceFactor" value="1.3" />
			<param name="mode" value="walk" />
			<param name="teleportedModeFreespeedFactor" value="null" />
			<param name="teleportedModeSpeed" value="0.8333333333333333" />
		</parameterset>
		<parameterset type="teleportedModeParameters" >
			<param name="beelineDistanceFactor" value="1.3" />
			<param name="mode" value="non_network_walk" />
			<param name="teleportedModeFreespeedFactor" value="null" />
			<param name="teleportedModeSpeed" value="0.8333333333333333" />
		</parameterset>
		<parameterset type="teleportedModeParameters" >
			<param name="beelineDistanceFactor" value="1.3" />
			<param name="mode" value="ride" />
			<param name="teleportedModeFreespeedFactor" value="1.0" />
			<param name="teleportedModeSpeed" value="null" />
		</parameterset>
		<parameterset type="teleportedModeParameters" >
			<param name="beelineDistanceFactor" value="1.3" />
			<param name="mode" value="pt" />
			<param name="teleportedModeFreespeedFactor" value="2.0" />
			<param name="teleportedModeSpeed" value="null" />
		</parameterset>
	</module>
	<module name="ptCounts" >
		<!-- factor by which to re-scale the simulated values.  necessary when simulation runs with something different from 100%.  needs to be adapted manually -->
		<param name="countsScaleFactor" value="1.0" />
		<!-- distance to distanceFilterCenterNode to include counting stations. The unit of distance is the Euclidean distance implied by the coordinate system -->
		<param name="distanceFilter" value="null" />
		<!-- node id for center node of distance filter -->
		<param name="distanceFilterCenterNode" value="null" />
		<!-- input file containing the alighting (getting off) counts for pt -->
		<param name="inputAlightCountsFile" value="null" />
		<!-- input file containing the boarding (getting on) counts for pt -->
		<param name="inputBoardCountsFile" value="null" />
		<!-- input file containing the occupancy counts for pt -->
		<param name="inputOccupancyCountsFile" value="null" />
		<!-- possible values: `html', `kml', `txt', `all' -->
		<param name="outputformat" value="null" />
		<!-- every how many iterations (starting with 0) counts comparisons are generated -->
		<param name="ptCountsInterval" value="10" />
	</module>
	<module name="qsim" >
		<param name="endTime" value="undefined" />
		<!-- If set to withLinkAttributes snapshots will only be generated for links which include generateSnapshotForLink as attribute key. Default is no filtering. -->
		<param name="filterSnapshots" value="no" />
		<param name="flowCapacityFactor" value="1.0" />
		<!-- decides if waiting vehicles enter the network after or before the already driving vehicles were moved. Default: false -->
		<param name="insertingWaitingVehiclesBeforeDrivingVehicles" value="true" />
		<!-- If link dynamics is set as SeepageQ, set to false if all seep modes should perform seepage. Default is true (better option). -->
		<param name="isRestrictingSeepage" value="true" />
		<!-- If link dynamics is set as SeepageQ, set to true if seep mode do not consumes any space on the link. Default is false. -->
		<param name="isSeepModeStorageFree" value="false" />
		<!-- default: FIFO; options: FIFO PassingQ SeepageQ -->
		<param name="linkDynamics" value="FIFO" />
		<!-- The (initial) width of the links of the network. Use positive floating point values. This is used only for visualisation. -->
		<param name="linkWidth" value="30.0" />
		<!-- [comma-separated list] Defines which modes are congested modes. Technically, these are the modes that the departure handler of the netsimengine handles.  Effective cell size, effective lane width, flow capacity factor, and storage capacity factor need to be set with diligence.  Need to be vehicular modes to make sense. -->
		<param name="mainMode" value="car" />
		<!-- Shortens a link in the visualization, i.e. its start and end point are moved into towards the center. Does not affect traffic flow.  -->
		<param name="nodeOffset" value="0.0" />
		<!-- Number of threads used for the QSim.  Note that this setting is independent from the "global" threads setting.  In contrast to earlier versions, the non-parallel special version is no longer there. -->
		<param name="numberOfThreads" value="1" />
		<!-- Boolean. `true': stuck vehicles are removed, aborting the plan; `false': stuck vehicles are forced into the next link. `false' is probably the better choice. -->
		<param name="removeStuckVehicles" value="false" />
		<!-- If link dynamics is set as SeepageQ, set a seep mode. Default is bike. -->
		<param name="seepMode" value="bike" />
		<!-- Possible values: minOfEndtimeAndMobsimFinished, onlyUseEndtime -->
		<param name="simEndtimeInterpretation" value="null" />
		<!-- Options: maxOfStarttimeAndEarliestActivityEnd onlyUseStarttime  -->
		<param name="simStarttimeInterpretation" value="onlyUseStarttime" />
		<!-- snapshotStyle. One of: equiDist queue withHoles withHolesAndShowHoles kinematicWaves  -->
		<param name="snapshotStyle" value="queue" />
		<param name="snapshotperiod" value="00:00:00" />
		<param name="startTime" value="undefined" />
		<param name="storageCapacityFactor" value="1.0" />
		<!-- time in seconds.  Time after which the frontmost vehicle on a link is called `stuck' if it does not move. -->
		<param name="stuckTime" value="10.0" />
		<param name="timeStepSize" value="00:00:01" />
		<!-- options: queue withHoles kinematicWaves  -->
		<param name="trafficDynamics" value="queue" />
		<!-- Set this parameter to true if lanes should be used, false if not. -->
		<param name="useLanes" value="false" />
		<!-- If a route does not reference a vehicle, agents will use the vehicle with the same id as their own. -->
		<param name="usePersonIdForMissingVehicleId" value="true" />
		<!-- If false, the qsim accumulates fractional flows up to one flow unit in every time step.  If true, flows are updated only if an agent wants to enter the link or an agent is added to buffer. Default is true. -->
		<param name="usingFastCapacityUpdate" value="true" />
		<!-- Defines what happens if an agent wants to depart, but the specified vehicle is not available. One of: teleport wait exception  -->
		<param name="vehicleBehavior" value="teleport" />
		<!-- If vehicles should all be the same default vehicle, or come from the vehicles file, or something else.  Possible values:  defaultVehicle modeVehicleTypesFromVehiclesData fromVehiclesData -->
		<param name="vehiclesSource" value="defaultVehicle" />
	</module>
	<module name="strategy" >
		<!-- the external executable will be called with a config file as argument.  This is the pathname to a possible skeleton config, to which additional information will be added.  Can be null. -->
		<param name="ExternalExeConfigTemplate" value="null" />
		<!-- time out value (in seconds) after which matsim will consider the external strategy as failed -->
		<param name="ExternalExeTimeOut" value="3600" />
		<!-- root directory for temporary files generated by the external executable. Provided as a service; I don't think this is used by MATSim. -->
		<param name="ExternalExeTmpFileRootDir" value="null" />
		<!-- fraction of iterations where innovative strategies are switched off.  Something like 0.8 should be good.  E.g. if you run from iteration 400 to iteration 500, innovation is switched off at iteration 480 -->
		<param name="fractionOfIterationsToDisableInnovation" value="Infinity" />
		<!-- maximum number of plans per agent.  ``0'' means ``infinity''.  Currently (2010), ``5'' is a good number -->
		<param name="maxAgentPlanMemorySize" value="1" />
		<!-- strategyName of PlanSelector for plans removal.  Possible defaults: WorstPlanSelector SelectRandom SelectExpBetaForRemoval ChangeExpBetaForRemoval PathSizeLogitSelectorForRemoval . The current default, WorstPlanSelector is not a good choice from a discrete choice theoretical perspective. Alternatives, however, have not been systematically tested. kai, feb'12 -->
		<param name="planSelectorForRemoval" value="WorstPlanSelector" />
		<parameterset type="strategysettings" >
			<!-- iteration after which strategy will be disabled.  most useful for ``innovative'' strategies (new routes, new times, ...). Normally, better use fractionOfIterationsToDisableInnovation -->
			<param name="disableAfterIteration" value="-1" />
			<!-- path to external executable (if applicable) -->
			<param name="executionPath" value="null" />
			<!-- strategyName of strategy.  Possible default names: SelectRandom BestScore KeepLastSelected ChangeExpBeta SelectExpBeta SelectPathSizeLogit      (selectors), ReRouteTimeAllocationMutatorTimeAllocationMutator_ReRouteChangeSingleTripModeChangeTripModeSubtourModeChoice (innovative strategies). -->
			<param name="strategyName" value="KeepLastSelected" />
			<!-- subpopulation to which the strategy applies. "null" refers to the default population, that is, the set of persons for which no explicit subpopulation is defined (ie no subpopulation attribute) -->
			<param name="subpopulation" value="null" />
			<!-- weight of a strategy: for each agent, a strategy will be selected with a probability proportional to its weight -->
			<param name="weight" value="1.0" />
		</parameterset>
	</module>
	<module name="subtourModeChoice" >
		<!-- Only for backwards compatibility.  Defines if only trips from modes list should change mode, or all trips.  Options: fromAllModesToSpecifiedModes fromSpecifiedModesToSpecifiedModes  -->
		<param name="behavior" value="fromSpecifiedModesToSpecifiedModes" />
		<!-- Defines the chain-based modes, seperated by commas -->
		<param name="chainBasedModes" value="car,bike" />
		<!-- Defines whether car availability must be considered or not. A agent has no car only if it has no license, or never access to a car -->
		<param name="considerCarAvailability" value="false" />
		<!-- Defines all the modes available, including chain-based modes, seperated by commas -->
		<param name="modes" value="car,pt,bike,walk" />
	</module>
	<module name="transit" >
		<!-- The Coordinates Reference System in which the coordinates are expressed in the input file. At import, the coordinates will be converted to the coordinate system defined in "global", and willbe converted back at export. If not specified, no conversion happens. -->
		<param name="inputScheduleCRS" value="null" />
		<param name="insistingOnUsingDeprecatedAttributeFiles" value="false" />
		<!-- The type of transit routing algorithm used, may have the values: [DijkstraBased, SwissRailRaptor] -->
		<param name="routingAlgorithmType" value="SwissRailRaptor" />
		<!-- Optional input file containing additional attributes for transit lines, stored as ObjectAttributes. -->
		<param name="transitLinesAttributesFile" value="null" />
		<!-- Comma-separated list of transportation modes that are handled as transit. Defaults to 'pt'. -->
		<param name="transitModes" value="pt" />
		<!-- Input file containing the transit schedule to be simulated. -->
		<param name="transitScheduleFile" value="null" />
		<!-- Optional input file containing additional attributes for transit stop facilities, stored as ObjectAttributes. -->
		<param name="transitStopsAttributesFile" value="null" />
		<!-- Set this parameter to true if transit should be simulated, false if not. -->
		<param name="useTransit" value="false" />
		<param name="usingTransitInMobsim" value="true" />
		<!-- Input file containing the vehicles used by the departures in the transit schedule. -->
		<param name="vehiclesFile" value="null" />
	</module>
	<module name="transitRouter" >
		<!-- additional time the router allocates when a line switch happens. Can be interpreted as a 'safety' time that agents need to safely transfer from one line to another -->
		<param name="additionalTransferTime" value="0.0" />
		<!-- Factor with which direct walk generalized cost is multiplied before it is compared to the pt generalized cost.  Set to a very high value to reduce direct walk results. -->
		<param name="directWalkFactor" value="1.0" />
		<!-- step size to increase searchRadius if no stops are found -->
		<param name="extensionRadius" value="200.0" />
		<!-- maximum beeline distance between stops that agents could transfer to by walking -->
		<param name="maxBeelineWalkConnectionDistance" value="100.0" />
		<!-- the radius in which stop locations are searched, given a start or target coordinate -->
		<param name="searchRadius" value="1000.0" />
	</module>
	<module name="travelTimeCalculator" >
		<!-- (only for backwards compatibility; only used if separateModes==false && + filterModes==true)  Transport modes that will be respected by the travel time collector. 'car' is default which includes also buses from the pt simulation module. -->
		<param name="analyzedModes" value="car" />
		<param name="calculateLinkToLinkTravelTimes" value="false" />
		<param name="calculateLinkTravelTimes" value="true" />
		<!-- (only for backwards compatiblity; only used if separateModes==false)  Only modes included in analyzedModes are included. -->
		<param name="filterModes" value="false" />
		<!-- The lenght (in sec) of the time period that is splited into time bins; an additional time bin is created to aggregate all travel times collected after maxTime -->
		<param name="maxTime" value="108000" />
		<!-- (only for backwards compatibility) If false, link travel times are measured and aggregated over all vehicles using the link. -->
		<param name="separateModes" value="true" />
		<!-- How to deal with congested time bins that have no link entry events. `optimistic' assumes free speed (too optimistic); 'experimental_LastMile' is experimental and probably too pessimistic. -->
		<param name="travelTimeAggregator" value="optimistic" />
		<!-- The size of the time bin (in sec) into which the link travel times are aggregated for the router -->
		<param name="travelTimeBinSize" value="900" />
		<!-- possible values: TravelTimeCalculatorArray TravelTimeCalculatorHashMap  -->
		<param name="travelTimeCalculator" value="TravelTimeCalculatorArray" />
		<!-- How to deal with link entry times at different positions during the time bin. Currently supported: average, linearinterpolation -->
		<param name="travelTimeGetter" value="average" />
	</module>
	<module name="vehicles" >
		<param name="vehiclesFile" value="null" />
	</module>
	<module name="vspExperimental" >
		<!-- (do not use except of you have to) There was a problem with pt interaction scoring.  Some people solved it by overwriting the parameters of the pt interaction activity type.  Doing this now throws an Exception.  If you still insist on doing this, set the following to true. -->
		<param name="isAbleToOverwritePtInteractionParams" value="false" />
		<param name="isGeneratingBoardingDeniedEvent" value="false" />
		<!-- if an approximation of the opportunity cost of time is included into the radius calculation for location choice.`true' will be faster, but it is an approximation.  Default is `true'; `false' is available for backwards compatibility. -->
		<param name="isUsingOpportunityCostOfTimeForLocationChoice" value="true" />
		<param name="logitScaleParamForPlansRemoval" value="1.0" />
		<!-- Options: | ignore | info | warn | abort | .  When violating VSP defaults, this results in nothing, logfile infos, logfile warnings, or aborts.  Members of VSP should use `abort' or talk to kai. -->
		<param name="vspDefaultsCheckingLevel" value="ignore" />
		<!-- if true then writes output_events in output directory.  default is `false'. Will only work when lastIteration is multiple of events writing interval -->
		<param name="writingOutputEvents" value="true" />
	</module>

</config>

2022-03-04T13:22:49,830  INFO ControlerUtils:84 Complete config dump done.
2022-03-04T13:22:49,831  INFO ControlerUtils:85 Checking consistency of config...
2022-03-04T13:22:49,831  INFO PlanCalcScoreConfigGroup$ScoringParameterSet:1554 NO OPENING OR CLOSING TIMES DEFINED!

There is no activity type that has an opening *and* closing time (or opening time and late penalty) defined.
This usually means that the activity chains can be shifted by an arbitrary
number of hours without having an effect on the score of the plans, and thus
resulting in wrong results / traffic patterns.
If you are using MATSim without time adaptation, you can ignore this warning.


2022-03-04T13:22:49,831  INFO VspConfigConsistencyCheckerImpl:63 NOT running vsp config consistency check because vsp defaults checking level is set to IGNORE
2022-03-04T13:22:49,842  INFO ControlerUtils:87 Checking consistency of config done.
2022-03-04T13:22:49,899  WARN PrepareForSimImpl:228 'usePersonIdForMissingVehicleId' is deprecated. It will be removed soon.
2022-03-04T13:22:49,905  INFO Counter:69 [VehiclesImpl] added vehicle # 1
2022-03-04T13:22:49,905  INFO Counter:69 [VehiclesImpl] added vehicle # 2
2022-03-04T13:22:49,905  INFO Counter:69 [VehiclesImpl] added vehicle # 4
2022-03-04T13:22:49,906  INFO Counter:69 [VehiclesImpl] added vehicle # 8
2022-03-04T13:22:49,906  INFO Counter:69 [VehiclesImpl] added vehicle # 16
2022-03-04T13:22:49,906  INFO Counter:69 [VehiclesImpl] added vehicle # 32
2022-03-04T13:22:49,907  INFO Counter:69 [VehiclesImpl] added vehicle # 64
2022-03-04T13:22:49,908  INFO Counter:69 [VehiclesImpl] added vehicle # 128
2022-03-04T13:22:49,910  INFO Counter:69 [VehiclesImpl] added vehicle # 256
2022-03-04T13:22:49,913  INFO Counter:69 [VehiclesImpl] added vehicle # 512
2022-03-04T13:22:49,917  INFO Counter:69 [VehiclesImpl] added vehicle # 1024
2022-03-04T13:22:49,922  INFO Counter:69 [VehiclesImpl] added vehicle # 2048
2022-03-04T13:22:49,930  INFO Counter:69 [VehiclesImpl] added vehicle # 4096
2022-03-04T13:22:49,946  INFO Counter:69 [VehiclesImpl] added vehicle # 8192
2022-03-04T13:22:49,972  INFO Counter:69 [VehiclesImpl] added vehicle # 16384
2022-03-04T13:22:50,033  INFO Counter:69 [VehiclesImpl] added vehicle # 32768
2022-03-04T13:22:50,527  INFO PreProcessDijkstra:118 nodes in dead ends: 9354 (total nodes: 93513). Done in 340 ms
2022-03-04T13:22:50,528  WARN PreProcessEuclidean:59 There are links with stored length smaller than their Euclidean distance in this network. Thus, A* cannot guarantee to calculate the least-cost paths between two nodes.
2022-03-04T13:22:50,583  INFO PreProcessLandmarks:112 Putting landmarks on network...
2022-03-04T13:22:50,607  INFO LandmarkerPieSlices:96 Filling sectors...
2022-03-04T13:22:50,909  INFO LandmarkerPieSlices:107 Refining landmarks...
2022-03-04T13:22:50,914  INFO LandmarkerPieSlices:109 done
2022-03-04T13:22:50,915  INFO PreProcessLandmarks:115 done in 331 ms
2022-03-04T13:22:50,915  INFO PreProcessLandmarks:117 Initializing landmarks data
2022-03-04T13:22:50,975  INFO PreProcessLandmarks:129 Calculating distance from each node to each of the 16 landmarks using 2 threads...
2022-03-04T13:22:50,976  INFO PreProcessLandmarks:139 wait for landmarks Calculator to finish...
2022-03-04T13:22:55,631  INFO PreProcessLandmarks:163 done in 4656 ms
2022-03-04T13:22:55,634  INFO NetworkImpl:163  node # 1
2022-03-04T13:22:55,634  INFO NetworkImpl:163  node # 4
2022-03-04T13:22:55,635  INFO NetworkImpl:163  node # 16
2022-03-04T13:22:55,635  INFO NetworkImpl:163  node # 64
2022-03-04T13:22:55,635  INFO NetworkImpl:163  node # 256
2022-03-04T13:22:55,635  INFO NetworkImpl:163  node # 1024
2022-03-04T13:22:55,636  INFO NetworkImpl:163  node # 4096
2022-03-04T13:22:55,637  INFO NetworkImpl:163  node # 16384
2022-03-04T13:22:55,642  INFO NetworkImpl:163  node # 65536
2022-03-04T13:22:55,645  INFO NetworkImpl:159  link # 1
2022-03-04T13:22:55,646  INFO NetworkImpl:159  link # 4
2022-03-04T13:22:55,646  INFO NetworkImpl:159  link # 16
2022-03-04T13:22:55,646  INFO NetworkImpl:159  link # 64
2022-03-04T13:22:55,647  INFO NetworkImpl:159  link # 256
2022-03-04T13:22:55,648  INFO NetworkImpl:159  link # 1024
2022-03-04T13:22:55,652  INFO NetworkImpl:159  link # 4096
2022-03-04T13:22:55,670  INFO NetworkImpl:159  link # 16384
2022-03-04T13:22:55,735  INFO NetworkImpl:159  link # 65536
2022-03-04T13:22:56,024  WARN RandomizingTimeDistanceTravelDisutilityFactory:112 There will be no routing randomness. The randomization of the travel disutility requires the monetary distance rate to be different than zero. Continuing anyway.
2022-03-04T13:22:56,024  WARN RandomizingTimeDistanceTravelDisutilityFactory:117 There will be no routing randomness. The randomization of the travel disutility requires the travel time cost rate to be different than zero. Continuing anyway.
2022-03-04T13:22:56,026  INFO RandomizingTimeDistanceTravelDisutilityFactory:85  sigma: 3.0; resulting normalization: 0.011108996538242306
2022-03-04T13:22:56,206  INFO PreProcessDijkstra:118 nodes in dead ends: 9354 (total nodes: 93513). Done in 180 ms
2022-03-04T13:22:56,207  WARN PreProcessEuclidean:59 There are links with stored length smaller than their Euclidean distance in this network. Thus, A* cannot guarantee to calculate the least-cost paths between two nodes.
2022-03-04T13:22:56,236  INFO PreProcessLandmarks:112 Putting landmarks on network...
2022-03-04T13:22:56,249  INFO LandmarkerPieSlices:96 Filling sectors...
2022-03-04T13:22:56,380  INFO LandmarkerPieSlices:107 Refining landmarks...
2022-03-04T13:22:56,456  INFO LandmarkerPieSlices:109 done
2022-03-04T13:22:56,456  INFO PreProcessLandmarks:115 done in 220 ms
2022-03-04T13:22:56,456  INFO PreProcessLandmarks:117 Initializing landmarks data
2022-03-04T13:22:56,496  INFO PreProcessLandmarks:129 Calculating distance from each node to each of the 16 landmarks using 2 threads...
2022-03-04T13:22:56,497  INFO PreProcessLandmarks:139 wait for landmarks Calculator to finish...
2022-03-04T13:23:00,986  INFO PreProcessLandmarks:163 done in 4490 ms
2022-03-04T13:23:01,069  INFO SpeedyALTData:51 find dead ends...
2022-03-04T13:23:01,095  INFO SpeedyALTData:132 calculate landmarks...
2022-03-04T13:23:02,223  INFO SpeedyALTData:173 calculate min travelcost...
2022-03-04T13:23:02,265  INFO RandomizingTimeDistanceTravelDisutilityFactory:85  sigma: 3.0; resulting normalization: 0.011108996538242306
2022-03-04T13:23:02,287  INFO Counter:69 [PersonPrepareForSim] handled person # 1
2022-03-04T13:23:02,287  INFO Counter:69 [PersonPrepareForSim] handled person # 2
2022-03-04T13:23:02,287  INFO Counter:69 [PersonPrepareForSim] handled person # 8
2022-03-04T13:23:02,287  INFO Counter:69 [PersonPrepareForSim] handled person # 4
2022-03-04T13:23:02,287  INFO Counter:69 [PersonPrepareForSim] handled person # 16
2022-03-04T13:23:02,287  INFO Counter:69 [PersonPrepareForSim] handled person # 32
2022-03-04T13:23:02,288  INFO Counter:69 [PersonPrepareForSim] handled person # 64
2022-03-04T13:23:02,288  INFO Counter:69 [PersonPrepareForSim] handled person # 128
2022-03-04T13:23:02,288  INFO Counter:69 [PersonPrepareForSim] handled person # 256
2022-03-04T13:23:02,289  INFO Counter:69 [PersonPrepareForSim] handled person # 512
2022-03-04T13:23:02,290  INFO Counter:69 [PersonPrepareForSim] handled person # 1024
2022-03-04T13:23:02,292  INFO Counter:69 [PersonPrepareForSim] handled person # 2048
2022-03-04T13:23:02,296  INFO Counter:69 [PersonPrepareForSim] handled person # 4096
2022-03-04T13:23:02,303  INFO Counter:69 [PersonPrepareForSim] handled person # 8192
2022-03-04T13:23:02,315  INFO Counter:69 [PersonPrepareForSim] handled person # 16384
2022-03-04T13:23:02,339  INFO Counter:69 [PersonPrepareForSim] handled person # 32768
2022-03-04T13:23:02,353  INFO Counter:74 [PersonPrepareForSim] handled person # 41007
2022-03-04T13:23:02,403  INFO AbstractController:133 ###################################################
2022-03-04T13:23:02,403  INFO AbstractController:134 ### ITERATION 0 BEGINS
2022-03-04T13:23:02,405  INFO ControlerListenerManagerImpl:145 calling notifyIterationStarts on org.matsim.analysis.LegHistogramListener
2022-03-04T13:23:02,405  INFO ControlerListenerManagerImpl:145 calling notifyIterationStarts on org.matsim.analysis.LinkStatsControlerListener
2022-03-04T13:23:02,405  INFO ControlerListenerManagerImpl:145 calling notifyIterationStarts on org.matsim.core.replanning.ReplanningContextImpl
2022-03-04T13:23:02,405  INFO ControlerListenerManagerImpl:145 calling notifyIterationStarts on org.matsim.core.scoring.ScoringFunctionsForPopulation$$Lambda$236/0x0000000800f3dbc8
2022-03-04T13:23:02,553  INFO ControlerListenerManagerImpl:145 calling notifyIterationStarts on org.matsim.core.scoring.ExperiencedPlansServiceImpl$1
2022-03-04T13:23:02,562  INFO ControlerListenerManagerImpl:148 [it.0] all ControlerIterationStartsListeners called.
2022-03-04T13:23:02,563  INFO ControlerListenerManagerImpl:224 calling notifyBeforeMobsim on org.matsim.core.controler.corelisteners.EventsHandlingImpl
2022-03-04T13:23:02,563  INFO EventsManagerImpl:190 resetting Event-Handlers
2022-03-04T13:23:02,563  INFO EventsManagerImpl:197   org.matsim.core.trafficmonitoring.TravelTimeCalculator
2022-03-04T13:23:02,564  INFO EventsManagerImpl:197   org.matsim.contrib.taxi.fare.TaxiFareHandler
2022-03-04T13:23:02,564  INFO EventsManagerImpl:197   org.matsim.analysis.VolumesAnalyzer
2022-03-04T13:23:02,565  INFO EventsManagerImpl:197   org.matsim.core.scoring.ScoringFunctionsForPopulation
2022-03-04T13:23:02,565  INFO EventsManagerImpl:197   org.matsim.analysis.LegHistogram
2022-03-04T13:23:02,565  INFO EventsManagerImpl:197   org.matsim.analysis.CalcLegTimes
2022-03-04T13:23:02,566  INFO EventsManagerImpl:197   org.matsim.contrib.taxi.analysis.TaxiEventSequenceCollector
2022-03-04T13:23:02,566  INFO EventsManagerImpl:197   org.matsim.contrib.dvrp.analysis.ExecutedScheduleCollector
2022-03-04T13:23:02,570  INFO EventsManagerImpl:160 adding Event-Handler: org.matsim.core.events.algorithms.EventWriterXML
2022-03-04T13:23:02,570  INFO EventsManagerImpl:166   org.matsim.core.events.algorithms.EventWriter
2022-03-04T13:23:02,570  INFO EventsManagerImpl:166   org.matsim.core.events.handler.BasicEventHandler
2022-03-04T13:23:02,570  INFO EventsManagerImpl:227     > org.matsim.api.core.v01.events.Event
2022-03-04T13:23:02,570  INFO EventsManagerImpl:176 
2022-03-04T13:23:02,570  INFO EventsManagerImpl:160 adding Event-Handler: org.matsim.core.events.algorithms.EventWriterXML
2022-03-04T13:23:02,570  INFO EventsManagerImpl:166   org.matsim.core.events.algorithms.EventWriter
2022-03-04T13:23:02,571  INFO EventsManagerImpl:166   org.matsim.core.events.handler.BasicEventHandler
2022-03-04T13:23:02,571  INFO EventsManagerImpl:227     > org.matsim.api.core.v01.events.Event
2022-03-04T13:23:02,571  INFO EventsManagerImpl:176 
2022-03-04T13:23:02,571  INFO ControlerListenerManagerImpl:224 calling notifyBeforeMobsim on org.matsim.core.controler.corelisteners.PlansDumpingImpl
2022-03-04T13:23:02,571  INFO PlansDumpingImpl:76 dumping plans...
2022-03-04T13:23:02,598  INFO Counter:69 [PopulationWriter] dumped person # 1
2022-03-04T13:23:02,599  INFO Counter:69 [PopulationWriter] dumped person # 2
2022-03-04T13:23:02,599  INFO Counter:69 [PopulationWriter] dumped person # 4
2022-03-04T13:23:02,600  INFO Counter:69 [PopulationWriter] dumped person # 8
2022-03-04T13:23:02,600  INFO Counter:69 [PopulationWriter] dumped person # 16
2022-03-04T13:23:02,601  INFO Counter:69 [PopulationWriter] dumped person # 32
2022-03-04T13:23:02,604  INFO Counter:69 [PopulationWriter] dumped person # 64
2022-03-04T13:23:02,606  INFO Counter:69 [PopulationWriter] dumped person # 128
2022-03-04T13:23:02,613  INFO Counter:69 [PopulationWriter] dumped person # 256
2022-03-04T13:23:02,624  INFO Counter:69 [PopulationWriter] dumped person # 512
2022-03-04T13:23:02,637  INFO Counter:69 [PopulationWriter] dumped person # 1024
2022-03-04T13:23:02,654  INFO Counter:69 [PopulationWriter] dumped person # 2048
2022-03-04T13:23:02,686  INFO Counter:69 [PopulationWriter] dumped person # 4096
2022-03-04T13:23:02,750  INFO Counter:69 [PopulationWriter] dumped person # 8192
2022-03-04T13:23:02,883  INFO Counter:69 [PopulationWriter] dumped person # 16384
2022-03-04T13:23:03,102  INFO Counter:69 [PopulationWriter] dumped person # 32768
2022-03-04T13:23:03,214  INFO PopulationWriter:144 Population written to: output/Chicago190701_scooter6666/ITERS/it.0/0.plans.xml.gz
2022-03-04T13:23:03,215  INFO Counter:74 [PopulationWriter] dumped person # 41007
2022-03-04T13:23:03,216  INFO PlansDumpingImpl:93 finished plans dump.
2022-03-04T13:23:03,216  INFO ControlerListenerManagerImpl:229 calling notifyBeforeMobsim on org.matsim.core.population.VspPlansCleaner
2022-03-04T13:23:03,243  INFO ControlerListenerManagerImpl:232 [it.0] all ControlerBeforeMobsimListeners called.
2022-03-04T13:23:03,258  INFO RandomizingTimeDistanceTravelDisutilityFactory:85  sigma: 3.0; resulting normalization: 0.011108996538242306
2022-03-04T13:23:03,270  INFO RandomizingTimeDistanceTravelDisutilityFactory:85  sigma: 3.0; resulting normalization: 0.011108996538242306
2022-03-04T13:23:03,288  INFO Counter:69 [PersonPrepareForSim] handled person # 2
2022-03-04T13:23:03,288  INFO Counter:69 [PersonPrepareForSim] handled person # 1
2022-03-04T13:23:03,288  INFO Counter:69 [PersonPrepareForSim] handled person # 4
2022-03-04T13:23:03,288  INFO Counter:69 [PersonPrepareForSim] handled person # 8
2022-03-04T13:23:03,288  INFO Counter:69 [PersonPrepareForSim] handled person # 16
2022-03-04T13:23:03,288  INFO Counter:69 [PersonPrepareForSim] handled person # 32
2022-03-04T13:23:03,288  INFO Counter:69 [PersonPrepareForSim] handled person # 64
2022-03-04T13:23:03,288  INFO Counter:69 [PersonPrepareForSim] handled person # 128
2022-03-04T13:23:03,288  INFO Counter:69 [PersonPrepareForSim] handled person # 256
2022-03-04T13:23:03,289  INFO Counter:69 [PersonPrepareForSim] handled person # 512
2022-03-04T13:23:03,289  INFO Counter:69 [PersonPrepareForSim] handled person # 1024
2022-03-04T13:23:03,290  INFO Counter:69 [PersonPrepareForSim] handled person # 2048
2022-03-04T13:23:03,291  INFO Counter:69 [PersonPrepareForSim] handled person # 4096
2022-03-04T13:23:03,293  INFO Counter:69 [PersonPrepareForSim] handled person # 8192
2022-03-04T13:23:03,331  INFO Counter:69 [PersonPrepareForSim] handled person # 16384
2022-03-04T13:23:03,343  INFO Counter:69 [PersonPrepareForSim] handled person # 32768
2022-03-04T13:23:03,348  INFO Counter:74 [PersonPrepareForSim] handled person # 41007
2022-03-04T13:23:03,413  INFO MobsimListenerManager:49 calling addQueueSimulationListener
2022-03-04T13:23:03,413  INFO MobsimListenerManager:53   assigned class org.matsim.core.mobsim.framework.listeners.MobsimListener to interface org.matsim.core.mobsim.framework.listeners.MobsimBeforeCleanupListener
2022-03-04T13:23:03,413  INFO MobsimListenerManager:53   assigned class org.matsim.core.mobsim.framework.listeners.MobsimListener to interface org.matsim.core.mobsim.framework.listeners.MobsimListener
2022-03-04T13:23:03,413  INFO MobsimListenerManager:53   assigned class org.matsim.core.mobsim.framework.listeners.MobsimListener to interface org.matsim.contrib.dvrp.trafficmonitoring.DvrpOfflineTravelTimeEstimator
2022-03-04T13:23:03,413  INFO MobsimListenerManager:49 calling addQueueSimulationListener
2022-03-04T13:23:03,414  INFO MobsimListenerManager:53   assigned class org.matsim.core.mobsim.framework.listeners.MobsimListener to interface org.matsim.core.mobsim.framework.listeners.MobsimBeforeCleanupListener
2022-03-04T13:23:03,414  INFO MobsimListenerManager:53   assigned class org.matsim.core.mobsim.framework.listeners.MobsimListener to interface org.matsim.core.mobsim.framework.listeners.MobsimAfterSimStepListener
2022-03-04T13:23:03,414  INFO MobsimListenerManager:53   assigned class org.matsim.core.mobsim.framework.listeners.MobsimListener to interface org.matsim.core.mobsim.framework.listeners.MobsimInitializedListener
2022-03-04T13:23:03,414  INFO MobsimListenerManager:53   assigned class org.matsim.core.mobsim.framework.listeners.MobsimListener to interface org.matsim.core.mobsim.framework.listeners.MobsimListener
2022-03-04T13:23:03,414  INFO MobsimListenerManager:53   assigned class org.matsim.core.mobsim.framework.listeners.MobsimListener to interface org.matsim.vis.snapshotwriters.SnapshotWriterManager
2022-03-04T13:23:03,533  INFO SpeedyALTData:51 find dead ends...
2022-03-04T13:23:03,549  INFO SpeedyALTData:132 calculate landmarks...
2022-03-04T13:23:04,566  INFO SpeedyALTData:173 calculate min travelcost...
2022-03-04T13:23:04,665  INFO SpeedyALTData:51 find dead ends...
2022-03-04T13:23:04,674  INFO SpeedyALTData:132 calculate landmarks...
2022-03-04T13:23:05,663  INFO SpeedyALTData:173 calculate min travelcost...
2022-03-04T13:23:05,766  INFO RandomizingTimeDistanceTravelDisutilityFactory:85  sigma: 3.0; resulting normalization: 0.011108996538242306
2022-03-04T13:23:06,407  INFO EventsManagerImpl:160 adding Event-Handler: org.matsim.contrib.dvrp.passenger.DefaultPassengerEngine
2022-03-04T13:23:06,407  INFO EventsManagerImpl:166   org.matsim.contrib.dvrp.passenger.PassengerEngine
2022-03-04T13:23:06,407  INFO EventsManagerImpl:166   org.matsim.contrib.dvrp.passenger.PassengerRequestRejectedEventHandler
2022-03-04T13:23:06,408  INFO EventsManagerImpl:227     > org.matsim.contrib.dvrp.passenger.PassengerRequestRejectedEvent
2022-03-04T13:23:06,408  INFO EventsManagerImpl:176 
2022-03-04T13:23:06,408  INFO EventsManagerImpl:160 adding Event-Handler: org.matsim.contrib.dvrp.passenger.DefaultPassengerEngine
2022-03-04T13:23:06,408  INFO EventsManagerImpl:166   org.matsim.contrib.dvrp.passenger.PassengerEngine
2022-03-04T13:23:06,408  INFO EventsManagerImpl:166   org.matsim.contrib.dvrp.passenger.PassengerRequestRejectedEventHandler
2022-03-04T13:23:06,408  INFO EventsManagerImpl:227     > org.matsim.contrib.dvrp.passenger.PassengerRequestRejectedEvent
2022-03-04T13:23:06,408  INFO EventsManagerImpl:176 
2022-03-04T13:23:06,410  INFO QSimProvider:115 Added MobsimEngine class org.matsim.core.mobsim.qsim.ActivityEngineDefaultImpl
2022-03-04T13:23:06,410  INFO QSimProvider:121 Added Activityhandler class org.matsim.core.mobsim.qsim.ActivityEngineDefaultImpl
2022-03-04T13:23:06,410  INFO QSimProvider:127 Added DepartureHandler class org.matsim.core.mobsim.qsim.qnetsimengine.VehicularDepartureHandler
2022-03-04T13:23:06,410  INFO QSimProvider:115 Added MobsimEngine class org.matsim.core.mobsim.qsim.qnetsimengine.QNetsimEngineWithThreadpool
2022-03-04T13:23:06,410  INFO QSimProvider:115 Added MobsimEngine class org.matsim.core.mobsim.qsim.DefaultTeleportationEngine
2022-03-04T13:23:06,410  INFO QSimProvider:127 Added DepartureHandler class org.matsim.core.mobsim.qsim.DefaultTeleportationEngine
2022-03-04T13:23:06,411  INFO QSimProvider:133 Added AgentSource class org.matsim.core.mobsim.qsim.agents.PopulationAgentSource
2022-03-04T13:23:06,411  INFO MobsimListenerManager:49 calling addQueueSimulationListener
2022-03-04T13:23:06,411  INFO MobsimListenerManager:53   assigned class org.matsim.core.mobsim.framework.listeners.MobsimListener to interface org.matsim.core.mobsim.qsim.messagequeueengine.MessageQueueEngine
2022-03-04T13:23:06,411  INFO MobsimListenerManager:53   assigned class org.matsim.core.mobsim.framework.listeners.MobsimListener to interface org.matsim.core.mobsim.framework.listeners.MobsimBeforeSimStepListener
2022-03-04T13:23:06,411  INFO MobsimListenerManager:53   assigned class org.matsim.core.mobsim.framework.listeners.MobsimListener to interface org.matsim.core.mobsim.framework.listeners.MobsimListener
2022-03-04T13:23:06,412  INFO QSimProvider:139 Added MobsimListener class org.matsim.core.mobsim.qsim.messagequeueengine.MessageQueueEngine
2022-03-04T13:23:06,412  INFO QSimProvider:115 Added MobsimEngine class org.matsim.contrib.dynagent.run.DynActivityEngine
2022-03-04T13:23:06,412  INFO QSimProvider:121 Added Activityhandler class org.matsim.contrib.dynagent.run.DynActivityEngine
2022-03-04T13:23:06,413  WARN EditTrips:115 no TransitStopAgentTracker found in qsim. Replanning of pt/transit legs will not work properly and will likely fail.
2022-03-04T13:23:06,414  INFO QSimProvider:115 Added MobsimEngine class org.matsim.core.mobsim.qsim.PreplanningEngine
2022-03-04T13:23:06,414  INFO QSimProvider:133 Added AgentSource class org.matsim.contrib.dvrp.vrpagent.VrpAgentSource
2022-03-04T13:23:06,414  INFO QSimProvider:115 Added MobsimEngine class org.matsim.contrib.dvrp.passenger.DefaultPassengerEngine
2022-03-04T13:23:06,414  INFO QSimProvider:127 Added DepartureHandler class org.matsim.contrib.dvrp.passenger.DefaultPassengerEngine
2022-03-04T13:23:06,414  INFO MobsimListenerManager:49 calling addQueueSimulationListener
2022-03-04T13:23:06,414  INFO MobsimListenerManager:53   assigned class org.matsim.core.mobsim.framework.listeners.MobsimListener to interface org.matsim.contrib.taxi.optimizer.TaxiOptimizer
2022-03-04T13:23:06,414  INFO MobsimListenerManager:53   assigned class org.matsim.core.mobsim.framework.listeners.MobsimListener to interface org.matsim.contrib.taxi.optimizer.DefaultTaxiOptimizer
2022-03-04T13:23:06,414  INFO MobsimListenerManager:53   assigned class org.matsim.core.mobsim.framework.listeners.MobsimListener to interface org.matsim.core.mobsim.framework.listeners.MobsimBeforeSimStepListener
2022-03-04T13:23:06,414  INFO MobsimListenerManager:53   assigned class org.matsim.core.mobsim.framework.listeners.MobsimListener to interface org.matsim.core.mobsim.framework.listeners.MobsimListener
2022-03-04T13:23:06,414  INFO QSimProvider:139 Added MobsimListener class org.matsim.contrib.taxi.optimizer.DefaultTaxiOptimizer
2022-03-04T13:23:06,414  INFO MobsimListenerManager:49 calling addQueueSimulationListener
2022-03-04T13:23:06,414  INFO MobsimListenerManager:53   assigned class org.matsim.core.mobsim.framework.listeners.MobsimListener to interface org.matsim.core.mobsim.framework.listeners.MobsimBeforeCleanupListener
2022-03-04T13:23:06,414  INFO MobsimListenerManager:53   assigned class org.matsim.core.mobsim.framework.listeners.MobsimListener to interface org.matsim.contrib.taxi.scheduler.TaxiScheduler
2022-03-04T13:23:06,415  INFO MobsimListenerManager:53   assigned class org.matsim.core.mobsim.framework.listeners.MobsimListener to interface org.matsim.core.mobsim.framework.listeners.MobsimListener
2022-03-04T13:23:06,415  INFO QSimProvider:139 Added MobsimListener class org.matsim.contrib.taxi.scheduler.TaxiScheduler
2022-03-04T13:23:06,415  INFO MobsimListenerManager:49 calling addQueueSimulationListener
2022-03-04T13:23:06,415  INFO MobsimListenerManager:53   assigned class org.matsim.core.mobsim.framework.listeners.MobsimListener to interface org.matsim.core.mobsim.framework.listeners.MobsimBeforeCleanupListener
2022-03-04T13:23:06,415  INFO MobsimListenerManager:53   assigned class org.matsim.core.mobsim.framework.listeners.MobsimListener to interface org.matsim.contrib.taxi.util.TaxiSimulationConsistencyChecker
2022-03-04T13:23:06,415  INFO MobsimListenerManager:53   assigned class org.matsim.core.mobsim.framework.listeners.MobsimListener to interface org.matsim.core.mobsim.framework.listeners.MobsimListener
2022-03-04T13:23:06,415  INFO QSimProvider:139 Added MobsimListener class org.matsim.contrib.taxi.util.TaxiSimulationConsistencyChecker
2022-03-04T13:23:06,422  INFO MobsimListenerManager:49 calling addQueueSimulationListener
2022-03-04T13:23:06,422  INFO MobsimListenerManager:53   assigned class org.matsim.core.mobsim.framework.listeners.MobsimListener to interface org.matsim.core.mobsim.framework.listeners.MobsimBeforeCleanupListener
2022-03-04T13:23:06,423  INFO MobsimListenerManager:53   assigned class org.matsim.core.mobsim.framework.listeners.MobsimListener to interface org.matsim.contrib.common.timeprofile.TimeProfileCollector
2022-03-04T13:23:06,423  INFO MobsimListenerManager:53   assigned class org.matsim.core.mobsim.framework.listeners.MobsimListener to interface org.matsim.core.mobsim.framework.listeners.MobsimBeforeSimStepListener
2022-03-04T13:23:06,423  INFO MobsimListenerManager:53   assigned class org.matsim.core.mobsim.framework.listeners.MobsimListener to interface org.matsim.core.mobsim.framework.listeners.MobsimListener
2022-03-04T13:23:06,423  INFO QSimProvider:139 Added MobsimListener class org.matsim.contrib.common.timeprofile.TimeProfileCollector
2022-03-04T13:23:06,428  INFO PopulationUtils:1140 adding scenario element for allpersons container
2022-03-04T13:23:06,429  INFO PopulationImpl:105  person # 1
2022-03-04T13:23:06,429  INFO PopulationImpl:105  person # 4
2022-03-04T13:23:06,429  INFO PopulationImpl:105  person # 16
2022-03-04T13:23:06,429  INFO PopulationImpl:105  person # 64
2022-03-04T13:23:06,431  INFO PopulationImpl:105  person # 256
2022-03-04T13:23:06,434  INFO PopulationImpl:105  person # 1024
2022-03-04T13:23:06,439  INFO PopulationImpl:105  person # 4096
2022-03-04T13:23:06,533  INFO PopulationImpl:105  person # 16384
2022-03-04T13:23:06,590  INFO VehicleUtils:324 adding scenario element for allvehicles container
2022-03-04T13:23:06,590  INFO Counter:69 [VehiclesImpl] added vehicle # 1
2022-03-04T13:23:06,590  INFO Counter:69 [VehiclesImpl] added vehicle # 2
2022-03-04T13:23:06,590  INFO Counter:69 [VehiclesImpl] added vehicle # 4
2022-03-04T13:23:06,591  INFO Counter:69 [VehiclesImpl] added vehicle # 8
2022-03-04T13:23:06,591  INFO Counter:69 [VehiclesImpl] added vehicle # 16
2022-03-04T13:23:06,591  INFO Counter:69 [VehiclesImpl] added vehicle # 32
2022-03-04T13:23:06,591  INFO Counter:69 [VehiclesImpl] added vehicle # 64
2022-03-04T13:23:06,592  INFO Counter:69 [VehiclesImpl] added vehicle # 128
2022-03-04T13:23:06,593  INFO Counter:69 [VehiclesImpl] added vehicle # 256
2022-03-04T13:23:06,594  INFO Counter:69 [VehiclesImpl] added vehicle # 512
[...]
2022-03-04T14:09:49,914  INFO MemoryObserver:41 used RAM: 1995 MB  free: 498 MB  total: 2494 MB
2022-03-04T14:10:49,916  INFO MemoryObserver:41 used RAM: 1613 MB  free: 880 MB  total: 2494 MB
2022-03-04T14:11:49,920  INFO MemoryObserver:41 used RAM: 2096 MB  free: 397 MB  total: 2494 MB
2022-03-04T14:12:49,925  INFO MemoryObserver:41 used RAM: 1746 MB  free: 747 MB  total: 2494 MB
2022-03-04T14:13:49,932  INFO MemoryObserver:41 used RAM: 2206 MB  free: 287 MB  total: 2494 MB
2022-03-04T14:14:49,936  INFO MemoryObserver:41 used RAM: 1933 MB  free: 560 MB  total: 2494 MB
2022-03-04T14:15:49,943  INFO MemoryObserver:41 used RAM: 1620 MB  free: 873 MB  total: 2494 MB
2022-03-04T14:16:49,949  INFO MemoryObserver:41 used RAM: 2066 MB  free: 427 MB  total: 2494 MB
2022-03-04T14:17:13,378  INFO AbstractQNetsimEngine:365 SIMULATION (QNetsimEngine) AT 06:00:00 : #links=130 #nodes=52
2022-03-04T14:17:13,379  INFO QSim:553 SIMULATION (NEW QSim) AT 06:00:00 : #Veh=36522 lost=0 simT=21600.0s realT=3249s; (s/r): 6.648199445983379
2022-03-04T14:17:49,951  INFO MemoryObserver:41 used RAM: 1975 MB  free: 518 MB  total: 2494 MB
2022-03-04T14:18:35,431  INFO AbstractQNetsimEngine:365 SIMULATION (QNetsimEngine) AT 07:00:00 : #links=181 #nodes=83
2022-03-04T14:18:35,432  INFO QSim:553 SIMULATION (NEW QSim) AT 07:00:00 : #Veh=35886 lost=0 simT=25200.0s realT=3332s; (s/r): 7.563025210084033
2022-03-04T14:18:49,955  INFO MemoryObserver:41 used RAM: 1493 MB  free: 1014 MB  total: 2508 MB
2022-03-04T14:19:49,959  INFO MemoryObserver:41 used RAM: 1772 MB  free: 737 MB  total: 2510 MB
2022-03-04T14:20:13,008  INFO AbstractQNetsimEngine:365 SIMULATION (QNetsimEngine) AT 08:00:00 : #links=206 #nodes=83
2022-03-04T14:20:13,009  INFO QSim:553 SIMULATION (NEW QSim) AT 08:00:00 : #Veh=34680 lost=0 simT=28800.0s realT=3429s; (s/r): 8.398950131233596
2022-03-04T14:20:49,964  INFO MemoryObserver:41 used RAM: 1503 MB  free: 1016 MB  total: 2520 MB
2022-03-04T14:21:44,976  INFO AbstractQNetsimEngine:365 SIMULATION (QNetsimEngine) AT 09:00:00 : #links=223 #nodes=77
2022-03-04T14:21:44,977  INFO QSim:553 SIMULATION (NEW QSim) AT 09:00:00 : #Veh=32674 lost=0 simT=32400.0s realT=3521s; (s/r): 9.201931269525703
2022-03-04T14:21:49,970  INFO MemoryObserver:41 used RAM: 1683 MB  free: 926 MB  total: 2610 MB
2022-03-04T14:22:39,880  INFO EventsManagerImpl:137  event # 4194304
2022-03-04T14:22:49,975  INFO MemoryObserver:41 used RAM: 1765 MB  free: 844 MB  total: 2610 MB
2022-03-04T14:22:54,358  INFO AbstractQNetsimEngine:365 SIMULATION (QNetsimEngine) AT 10:00:00 : #links=180 #nodes=57
2022-03-04T14:22:54,358  INFO QSim:553 SIMULATION (NEW QSim) AT 10:00:00 : #Veh=30239 lost=0 simT=36000.0s realT=3590s; (s/r): 10.027855153203342
2022-03-04T14:23:38,663  INFO AbstractQNetsimEngine:365 SIMULATION (QNetsimEngine) AT 11:00:00 : #links=184 #nodes=71
2022-03-04T14:23:38,664  INFO QSim:553 SIMULATION (NEW QSim) AT 11:00:00 : #Veh=28123 lost=0 simT=39600.0s realT=3635s; (s/r): 10.894085281980743
2022-03-04T14:23:49,977  INFO MemoryObserver:41 used RAM: 2209 MB  free: 400 MB  total: 2610 MB
2022-03-04T14:24:21,489  INFO AbstractQNetsimEngine:365 SIMULATION (QNetsimEngine) AT 12:00:00 : #links=191 #nodes=84
2022-03-04T14:24:21,490  INFO QSim:553 SIMULATION (NEW QSim) AT 12:00:00 : #Veh=25937 lost=0 simT=43200.0s realT=3678s; (s/r): 11.745513866231647
2022-03-04T14:24:49,979  INFO MemoryObserver:41 used RAM: 2220 MB  free: 389 MB  total: 2610 MB
2022-03-04T14:25:15,588  INFO AbstractQNetsimEngine:365 SIMULATION (QNetsimEngine) AT 13:00:00 : #links=163 #nodes=76
2022-03-04T14:25:15,589  INFO QSim:553 SIMULATION (NEW QSim) AT 13:00:00 : #Veh=23388 lost=0 simT=46800.0s realT=3732s; (s/r): 12.540192926045016
2022-03-04T14:25:49,984  INFO MemoryObserver:41 used RAM: 2207 MB  free: 766 MB  total: 2974 MB
2022-03-04T14:26:08,910  INFO AbstractQNetsimEngine:365 SIMULATION (QNetsimEngine) AT 14:00:00 : #links=209 #nodes=90
2022-03-04T14:26:08,911  INFO QSim:553 SIMULATION (NEW QSim) AT 14:00:00 : #Veh=21049 lost=0 simT=50400.0s realT=3785s; (s/r): 13.315719947159842
2022-03-04T14:26:49,990  INFO MemoryObserver:41 used RAM: 2108 MB  free: 865 MB  total: 2974 MB
2022-03-04T14:27:10,661  INFO AbstractQNetsimEngine:365 SIMULATION (QNetsimEngine) AT 15:00:00 : #links=184 #nodes=88
2022-03-04T14:27:10,662  INFO QSim:553 SIMULATION (NEW QSim) AT 15:00:00 : #Veh=18599 lost=0 simT=54000.0s realT=3847s; (s/r): 14.036911879386535
2022-03-04T14:27:49,995  INFO MemoryObserver:41 used RAM: 1624 MB  free: 1349 MB  total: 2974 MB
2022-03-04T14:27:56,646  INFO AbstractQNetsimEngine:365 SIMULATION (QNetsimEngine) AT 16:00:00 : #links=195 #nodes=84
2022-03-04T14:27:56,646  INFO QSim:553 SIMULATION (NEW QSim) AT 16:00:00 : #Veh=16238 lost=0 simT=57600.0s realT=3893s; (s/r): 14.795787310557412
2022-03-04T14:28:49,999  INFO MemoryObserver:41 used RAM: 1959 MB  free: 1014 MB  total: 2974 MB
2022-03-04T14:29:14,628  INFO AbstractQNetsimEngine:365 SIMULATION (QNetsimEngine) AT 17:00:00 : #links=206 #nodes=87
2022-03-04T14:29:14,629  INFO QSim:553 SIMULATION (NEW QSim) AT 17:00:00 : #Veh=13474 lost=0 simT=61200.0s realT=3971s; (s/r): 15.411735079325107
2022-03-04T14:29:50,000  INFO MemoryObserver:41 used RAM: 2364 MB  free: 609 MB  total: 2974 MB
2022-03-04T14:29:51,541  INFO AbstractQNetsimEngine:365 SIMULATION (QNetsimEngine) AT 18:00:00 : #links=146 #nodes=58
2022-03-04T14:29:51,541  INFO QSim:553 SIMULATION (NEW QSim) AT 18:00:00 : #Veh=10554 lost=0 simT=64800.0s realT=4008s; (s/r): 16.167664670658684
2022-03-04T14:30:19,727  INFO AbstractQNetsimEngine:365 SIMULATION (QNetsimEngine) AT 19:00:00 : #links=163 #nodes=56
2022-03-04T14:30:19,727  INFO QSim:553 SIMULATION (NEW QSim) AT 19:00:00 : #Veh=8032 lost=0 simT=68400.0s realT=4036s; (s/r): 16.94747274529237
2022-03-04T14:30:46,024  INFO AbstractQNetsimEngine:365 SIMULATION (QNetsimEngine) AT 20:00:00 : #links=158 #nodes=43
2022-03-04T14:30:46,024  INFO QSim:553 SIMULATION (NEW QSim) AT 20:00:00 : #Veh=6007 lost=0 simT=72000.0s realT=4062s; (s/r): 17.725258493353028
2022-03-04T14:30:49,999  INFO MemoryObserver:41 used RAM: 2222 MB  free: 751 MB  total: 2974 MB
2022-03-04T14:31:25,020  INFO AbstractQNetsimEngine:365 SIMULATION (QNetsimEngine) AT 21:00:00 : #links=160 #nodes=56
2022-03-04T14:31:25,021  INFO QSim:553 SIMULATION (NEW QSim) AT 21:00:00 : #Veh=4359 lost=0 simT=75600.0s realT=4101s; (s/r): 18.434528163862474
2022-03-04T14:31:50,001  INFO MemoryObserver:41 used RAM: 2595 MB  free: 378 MB  total: 2974 MB
2022-03-04T14:31:59,904  INFO AbstractQNetsimEngine:365 SIMULATION (QNetsimEngine) AT 22:00:00 : #links=144 #nodes=49
2022-03-04T14:31:59,905  INFO QSim:553 SIMULATION (NEW QSim) AT 22:00:00 : #Veh=2906 lost=0 simT=79200.0s realT=4136s; (s/r): 19.148936170212767
2022-03-04T14:32:33,883  INFO AbstractQNetsimEngine:365 SIMULATION (QNetsimEngine) AT 23:00:00 : #links=87 #nodes=33
2022-03-04T14:32:33,884  INFO QSim:553 SIMULATION (NEW QSim) AT 23:00:00 : #Veh=1752 lost=0 simT=82800.0s realT=4170s; (s/r): 19.85611510791367
2022-03-04T14:32:45,367  INFO AbstractQNetsimEngine:365 SIMULATION (QNetsimEngine) AT 24:00:00 : #links=47 #nodes=18
2022-03-04T14:32:45,372  INFO QSim:553 SIMULATION (NEW QSim) AT 24:00:00 : #Veh=150 lost=0 simT=86400.0s realT=4181s; (s/r): 20.664912700310932
2022-03-04T14:32:50,002  INFO MemoryObserver:41 used RAM: 1889 MB  free: 1084 MB  total: 2974 MB
2022-03-04T14:32:50,098  INFO AbstractController$9:234 ### ITERATION 0 fires after mobsim event
2022-03-04T14:32:50,098  INFO ControlerListenerManagerImpl:248 calling notifyAfterMobsim on org.matsim.analysis.LegTimesControlerListener
2022-03-04T14:32:50,100  INFO Gbl:191 Thread performance: Thread=class org.matsim.core.events.SimStepParallelEventsManagerImpl$ProcessEventsRunnable0  cpu-time=46.516152sec
2022-03-04T14:32:50,103  INFO LegTimesControlerListener:50 [0] average trip (probably: leg) duration is: 707 seconds = 00:11:47
2022-03-04T14:32:50,103  INFO ControlerListenerManagerImpl:248 calling notifyAfterMobsim on org.matsim.core.events.MobsimScopeEventHandling
2022-03-04T14:32:50,104  INFO EventsManagerImpl:181 removing Event-Handler: org.matsim.contrib.dvrp.passenger.DefaultPassengerEngine
2022-03-04T14:32:50,104  INFO EventsManagerImpl:181 removing Event-Handler: org.matsim.contrib.dvrp.passenger.DefaultPassengerEngine
2022-03-04T14:32:50,104  INFO ControlerListenerManagerImpl:248 calling notifyAfterMobsim on org.matsim.contrib.dvrp.trafficmonitoring.DvrpOfflineTravelTimeEstimator
2022-03-04T14:32:51,740  INFO ControlerListenerManagerImpl:248 calling notifyAfterMobsim on org.matsim.contrib.taxi.util.stats.TaxiStatsDumper
2022-03-04T14:32:52,226  INFO ControlerListenerManagerImpl:248 calling notifyAfterMobsim on org.matsim.core.scoring.EventsToActivities$1
2022-03-04T14:32:52,288  INFO ControlerListenerManagerImpl:251 [it.0] all ControlerAfterMobsimListeners called.
2022-03-04T14:32:52,295  INFO AbstractController$4:159 ### ITERATION 0 fires scoring event
2022-03-04T14:32:52,295  INFO ControlerListenerManagerImpl:183 calling notifyScoring on org.matsim.core.scoring.PlansScoringImpl
2022-03-04T14:32:52,324  INFO NewScoreAssignerImpl:57 it: 0 msaStart: null
2022-03-04T14:32:52,340  INFO ControlerListenerManagerImpl:194 [it.0] all ControlerScoringListeners called.
2022-03-04T14:32:52,341  INFO AbstractController$5:167 ### ITERATION 0 fires iteration end event
2022-03-04T14:32:52,341  INFO ControlerListenerManagerImpl:160 calling notifyIterationEnds on org.matsim.core.controler.corelisteners.EventsHandlingImpl
2022-03-04T14:32:52,342  INFO EventsManagerImpl:181 removing Event-Handler: org.matsim.core.events.algorithms.EventWriterXML
2022-03-04T14:32:52,342  INFO EventsManagerImpl:181 removing Event-Handler: org.matsim.core.events.algorithms.EventWriterXML
2022-03-04T14:32:52,342  INFO ControlerListenerManagerImpl:160 calling notifyIterationEnds on org.matsim.core.scoring.PlansScoringImpl
2022-03-04T14:32:52,359  INFO ControlerListenerManagerImpl:167 calling notifyIterationEnds on org.matsim.counts.CountsControlerListener
2022-03-04T14:32:52,359  INFO ControlerListenerManagerImpl:167 calling notifyIterationEnds on org.matsim.analysis.ModeStatsControlerListener
2022-03-04T14:32:52,388  INFO ModeStatsControlerListener:144 Mode shares over all 41007.0 trips found. MainModeIdentifier: class org.matsim.core.router.RoutingModeMainModeIdentifier
2022-03-04T14:32:52,389  INFO ModeStatsControlerListener:151 -- mode share of mode taxi = 1.0
2022-03-04T14:32:52,390  INFO ControlerListenerManagerImpl:167 calling notifyIterationEnds on org.matsim.analysis.ScoreStatsControlerListener
2022-03-04T14:32:52,404  INFO ScoreStatsControlerListener:181 -- avg. score of the executed plan of each agent: 140.6270721412724
2022-03-04T14:32:52,405  INFO ScoreStatsControlerListener:182 -- avg. score of the worst plan of each agent: 140.6270721412724
2022-03-04T14:32:52,405  INFO ScoreStatsControlerListener:183 -- avg. of the avg. plan score per agent: 140.6270721412724
2022-03-04T14:32:52,405  INFO ScoreStatsControlerListener:184 -- avg. score of the best plan of each agent: 140.6270721412724
2022-03-04T14:32:52,408  INFO ControlerListenerManagerImpl:167 calling notifyIterationEnds on org.matsim.analysis.IterationTravelStatsControlerListener
2022-03-04T14:32:52,449  INFO TravelDistanceStats:143 -- average leg distance per plan (executed plans only): 9475.321541034335 meters
2022-03-04T14:32:52,450  INFO TravelDistanceStats:144 average leg distance per Person (executed plans only): 9475.321541034335 meters (statistic on all 41007 legs which have a finite distance)
2022-03-04T14:32:52,451  INFO TravelDistanceStats:145 -- average trip distance per plan (executed plans only): 9475.321541034335 meters
2022-03-04T14:32:52,451  INFO TravelDistanceStats:146 average trip distance per Person (executed plans only): 9475.321541034335 meters (statistic on all 41007 trips which have a finite distance)
2022-03-04T14:32:52,451  INFO TravelDistanceStats:147 (TravelDistanceStats takes an average over all legs where the simulation reports travelled (network) distances
2022-03-04T14:32:52,451  INFO TravelDistanceStats:148 (and teleported legs whose route contains a distance.)
2022-03-04T14:32:53,864  INFO ControlerListenerManagerImpl:167 calling notifyIterationEnds on org.matsim.analysis.LegHistogramListener
2022-03-04T14:32:53,874  INFO LegHistogramListener:72 number of legs:	41007	100%
2022-03-04T14:32:53,876  INFO LegHistogramListener:79 number of taxi legs:	41007	100.0%
2022-03-04T14:32:54,059  INFO ControlerListenerManagerImpl:167 calling notifyIterationEnds on org.matsim.analysis.LinkStatsControlerListener
2022-03-04T14:32:54,060  INFO ControlerListenerManagerImpl:171 [it.0] all ControlerIterationEndsListeners called.
2022-03-04T14:32:54,156  INFO AbstractController:181 ### ITERATION 0 ENDS
2022-03-04T14:32:54,156  INFO AbstractController:182 ###################################################
2022-03-04T14:32:54,156  INFO MatsimRuntimeModifications:79 S H U T D O W N   ---   start shutdown.
2022-03-04T14:32:54,156  INFO ControlerListenerManagerImpl:121 calling notifyShutdown on org.matsim.core.controler.corelisteners.EventsHandlingImpl
2022-03-04T14:32:54,156  INFO ControlerListenerManagerImpl:121 calling notifyShutdown on org.matsim.core.controler.corelisteners.DumpDataAtEndImpl
2022-03-04T14:32:54,174  INFO Counter:69 [PopulationWriter] dumped person # 1
2022-03-04T14:32:54,175  INFO Counter:69 [PopulationWriter] dumped person # 2
2022-03-04T14:32:54,175  INFO Counter:69 [PopulationWriter] dumped person # 4
2022-03-04T14:32:54,175  INFO Counter:69 [PopulationWriter] dumped person # 8
2022-03-04T14:32:54,175  INFO Counter:69 [PopulationWriter] dumped person # 16
2022-03-04T14:32:54,175  INFO Counter:69 [PopulationWriter] dumped person # 32
2022-03-04T14:32:54,176  INFO Counter:69 [PopulationWriter] dumped person # 64
2022-03-04T14:32:54,177  INFO Counter:69 [PopulationWriter] dumped person # 128
2022-03-04T14:32:54,178  INFO Counter:69 [PopulationWriter] dumped person # 256
2022-03-04T14:32:54,181  INFO Counter:69 [PopulationWriter] dumped person # 512
2022-03-04T14:32:54,186  INFO Counter:69 [PopulationWriter] dumped person # 1024
2022-03-04T14:32:54,197  INFO Counter:69 [PopulationWriter] dumped person # 2048
2022-03-04T14:32:54,218  INFO Counter:69 [PopulationWriter] dumped person # 4096
2022-03-04T14:32:54,261  INFO Counter:69 [PopulationWriter] dumped person # 8192
2022-03-04T14:32:54,346  INFO Counter:69 [PopulationWriter] dumped person # 16384
2022-03-04T14:32:54,522  INFO Counter:69 [PopulationWriter] dumped person # 32768
2022-03-04T14:32:54,609  INFO PopulationWriter:144 Population written to: output/Chicago190701_scooter6666/output_plans.xml.gz
2022-03-04T14:32:54,610  INFO Counter:74 [PopulationWriter] dumped person # 41007
2022-03-04T14:32:54,611  INFO NetworkWriter:69 Writing network to file: output/Chicago190701_scooter6666/output_network.xml.gz...
2022-03-04T14:32:57,113  INFO NetworkWriter:72 done.
2022-03-04T14:32:57,119  INFO Config:572 setting context to [file:/Users/hidenaga/IdeaProjects/matsim-maas2/]
2022-03-04T14:32:57,127  INFO Config:572 setting context to [file:/Users/hidenaga/IdeaProjects/matsim-maas2/]
2022-03-04T14:32:57,130  INFO Config:572 setting context to [file:/Users/hidenaga/IdeaProjects/matsim-maas2/]
2022-03-04T14:32:57,134  INFO Config:572 setting context to [file:/Users/hidenaga/IdeaProjects/matsim-maas2/]
2022-03-04T14:32:57,141  INFO Config:572 setting context to [file:/Users/hidenaga/IdeaProjects/matsim-maas2/]
2022-03-04T14:32:57,144  INFO Config:572 setting context to [file:/Users/hidenaga/IdeaProjects/matsim-maas2/]
2022-03-04T14:32:57,147  INFO Config:572 setting context to [file:/Users/hidenaga/IdeaProjects/matsim-maas2/]
2022-03-04T14:32:57,150  INFO Config:572 setting context to [file:/Users/hidenaga/IdeaProjects/matsim-maas2/]
2022-03-04T14:32:57,153  INFO Config:572 setting context to [file:/Users/hidenaga/IdeaProjects/matsim-maas2/]
2022-03-04T14:32:57,156  INFO Config:572 setting context to [file:/Users/hidenaga/IdeaProjects/matsim-maas2/]
2022-03-04T14:32:57,158  INFO Config:572 setting context to [file:/Users/hidenaga/IdeaProjects/matsim-maas2/]
2022-03-04T14:32:57,161  INFO Config:572 setting context to [file:/Users/hidenaga/IdeaProjects/matsim-maas2/]
2022-03-04T14:32:57,166  INFO Config:572 setting context to [file:/Users/hidenaga/IdeaProjects/matsim-maas2/]
2022-03-04T14:32:57,169  INFO Config:572 setting context to [file:/Users/hidenaga/IdeaProjects/matsim-maas2/]
2022-03-04T14:32:57,172  INFO Config:572 setting context to [file:/Users/hidenaga/IdeaProjects/matsim-maas2/]
2022-03-04T14:32:57,174  INFO Config:572 setting context to [file:/Users/hidenaga/IdeaProjects/matsim-maas2/]
2022-03-04T14:32:57,180  INFO Config:572 setting context to [file:/Users/hidenaga/IdeaProjects/matsim-maas2/]
2022-03-04T14:32:57,183  INFO Config:572 setting context to [file:/Users/hidenaga/IdeaProjects/matsim-maas2/]
2022-03-04T14:32:57,186  INFO Config:572 setting context to [file:/Users/hidenaga/IdeaProjects/matsim-maas2/]
2022-03-04T14:32:57,189  INFO Config:572 setting context to [file:/Users/hidenaga/IdeaProjects/matsim-maas2/]
2022-03-04T14:32:57,195  INFO Config:572 setting context to [file:/Users/hidenaga/IdeaProjects/matsim-maas2/]
2022-03-04T14:32:57,198  INFO Config:572 setting context to [file:/Users/hidenaga/IdeaProjects/matsim-maas2/]
2022-03-04T14:32:57,201  INFO Config:572 setting context to [file:/Users/hidenaga/IdeaProjects/matsim-maas2/]
2022-03-04T14:32:57,203  INFO Config:572 setting context to [file:/Users/hidenaga/IdeaProjects/matsim-maas2/]
2022-03-04T14:32:57,206  INFO Config:572 setting context to [file:/Users/hidenaga/IdeaProjects/matsim-maas2/]
2022-03-04T14:32:57,208  INFO Config:572 setting context to [file:/Users/hidenaga/IdeaProjects/matsim-maas2/]
2022-03-04T14:32:57,210  INFO Config:572 setting context to [file:/Users/hidenaga/IdeaProjects/matsim-maas2/]
2022-03-04T14:32:57,213  INFO Config:572 setting context to [file:/Users/hidenaga/IdeaProjects/matsim-maas2/]
2022-03-04T14:32:57,220  INFO MatsimVehicleWriter:54 about to write vehicles to: output/Chicago190701_scooter6666/output_vehicles.xml.gz
2022-03-04T14:32:57,220  INFO VehicleWriterV2:63 about to write vehicles to: output/Chicago190701_scooter6666/output_vehicles.xml.gz
2022-03-04T14:32:57,300  INFO MatsimVehicleWriter:54 about to write vehicles to: output/Chicago190701_scooter6666/output_allVehicles.xml.gz
2022-03-04T14:32:57,300  INFO VehicleWriterV2:63 about to write vehicles to: output/Chicago190701_scooter6666/output_allVehicles.xml.gz
2022-03-04T14:32:57,304  INFO HouseholdsWriterV10:66 about to write  households to: output/Chicago190701_scooter6666/output_households.xml.gz
2022-03-04T14:32:57,305  INFO Counter:74 [HouseholdsWriter] wrote household # 0
2022-03-04T14:32:57,493  INFO ControlerListenerManagerImpl:126 calling notifyShutdown on org.matsim.analysis.ScoreStatsControlerListener
2022-03-04T14:32:57,493  INFO ControlerListenerManagerImpl:126 calling notifyShutdown on org.matsim.analysis.IterationTravelStatsControlerListener
2022-03-04T14:32:57,494  INFO IterationTravelStatsControlerListener:104 Writing all Person and Attributes to personscsv
2022-03-04T14:32:57,641  INFO IterationTravelStatsControlerListener:148 ...done
2022-03-04T14:32:57,641  INFO ControlerListenerManagerImpl:126 calling notifyShutdown on org.matsim.contrib.taxi.util.stats.TaxiStatsDumper
2022-03-04T14:32:57,642  INFO ControlerListenerManagerImpl:126 calling notifyShutdown on org.matsim.contrib.dvrp.fleet.FleetControlerListener
2022-03-04T14:32:57,648  INFO ControlerListenerManagerImpl:129 all ControlerShutdownListeners called.
2022-03-04T14:32:57,649  INFO MatsimRuntimeModifications:102 S H U T D O W N   ---   shutdown completed.
2022-03-04T14:32:57,649  INFO OutputDirectoryLogging:170 closing the logfile, i.e. messages sent to the logger after this message are not written to the logfile.
