2021-06-22T22:45:01,129  INFO Gbl:63 JVM: 11.0.11; Eclipse OpenJ9; JRE 11 Mac OS X amd64-64-Bit Compressed References 20210421_957 (JIT enabled, AOT enabled)
OpenJ9   - b4cc246d9
OMR      - 162e6f729
JCL      - 7796c80419 based on jdk-11.0.11+9; 64-bit
2021-06-22T22:45:01,142  INFO Gbl:67 OS: Mac OS X; 10.15.7; x86_64
2021-06-22T22:45:01,142  INFO Gbl:70 CPU cores: 8
2021-06-22T22:45:01,143  INFO Gbl:71 max. Memory: 4096.0MB (4294967296B)
2021-06-22T22:45:01,144  INFO Gbl:109 MATSim-Build: r33e19afb3f7a26b161227957c610bcabfe27000f (2021-04-15 15:32:39)
2021-06-22T22:45:01,147  INFO ControlerListenerManagerImpl:107 calling notifyStartup on org.matsim.guice.DependencyGraphControlerListener
2021-06-22T22:45:01,146  INFO MemoryObserver:41 used RAM: 18 MB  free: 5 MB  total: 24 MB
2021-06-22T22:45:01,360  INFO ControlerListenerManagerImpl:107 calling notifyStartup on org.matsim.counts.CountsControlerListener
2021-06-22T22:45:01,360  INFO ControlerListenerManagerImpl:107 calling notifyStartup on org.matsim.analysis.ModeStatsControlerListener
2021-06-22T22:45:01,360  INFO ControlerListenerManagerImpl:107 calling notifyStartup on org.matsim.analysis.ScoreStatsControlerListener
2021-06-22T22:45:01,361  INFO ControlerListenerManagerImpl:110 all ControlerStartupListeners called.
2021-06-22T22:45:01,361  INFO ControlerUtils:79 config dump before iterations start
2021-06-22T22:45:01,390  INFO ControlerUtils:83 

<?xml version="1.0" encoding="UTF-8"?>
<!DOCTYPE config SYSTEM "http://www.matsim.org/files/dtd/config_v2.dtd">
<config>
	<module name="JDEQSim" >
		<param name="carSize" value="7.5" />
		<param name="endTime" value="undefined" />
		<param name="flowCapacityFactor" value="1.0" />
		<param name="gapTravelSpeed" value="15.0" />
		<param name="minimumInFlowCapacity" value="1800.0" />
		<param name="squeezeTime" value="1800.0" />
		<param name="storageCapacityFactor" value="1.0" />
	</module>
	<module name="TimeAllocationMutator" >
		<!-- Default:true; Defines whether time mutation changes an activity's duration. -->
		<param name="mutationAffectsDuration" value="true" />
		<!-- Default:1800.0; Defines how many seconds a time mutation can maximally shift a time. -->
		<param name="mutationRange" value="1800.0" />
	</module>
	<module name="changeMode" >
		<!-- Defines whether car availability is considered be considered or not. An agent has no car only if it has no license, or never access to a car. Default: true -->
		<param name="ignoreCarAvailability" value="true" />
		<!-- Defines the mode switch behavior. Possible values [fromAllModesToSpecifiedModes, fromSpecifiedModesToSpecifiedModes] Default: fromSpecifiedModesToSpecifiedModes. -->
		<param name="modeSwitchBehavior" value="fromSpecifiedModesToSpecifiedModes" />
		<!-- Defines all the modes available, including chain-based modes, seperated by commas -->
		<param name="modes" value="car,pt" />
	</module>
	<module name="controler" >
		<!-- Compression algorithm to use when writing out data to files. Possible values: [none, gzip, lz4, zst] -->
		<param name="compressionType" value="gzip" />
		<!-- Sets whether graphs showing some analyses should automatically be generated during the simulation. The generation of graphs usually takes a small amount of time that does not have any weight in big simulations, but add a significant overhead in smaller runs or in test cases where the graphical output is not even requested. -->
		<param name="createGraphs" value="true" />
		<!-- true if at the end of a run, plans, network, config etc should be dumped to a file -->
		<param name="dumpDataAtEnd" value="true" />
		<!-- Default=false. If enabled, the router takes travel times needed for turning moves into account. Cannot be used if the (Fast)AStarLandmarks routing or TravelTimeCalculator.separateModes is enabled. -->
		<param name="enableLinkToLinkRouting" value="false" />
		<!-- Default=xml; Specifies the file format for writing events. Currently supported: [xml, pb, json]
		Multiple values can be specified separated by commas (','). -->
		<param name="eventsFileFormat" value="xml" />
		<!-- Default=0. First Iteration of a simulation. -->
		<param name="firstIteration" value="0" />
		<!-- Default=1000. Last Iteration of a simulation. -->
		<param name="lastIteration" value="9" />
		<!-- Defines which mobility simulation will be used. Currently supported: qsim JDEQSim hermes 
		Depending on the chosen mobsim, you'll have to add additional config modules to configure the corresponding mobsim.
		For 'qsim', add a module 'qsim' to the config. -->
		<param name="mobsim" value="qsim" />
		<param name="outputDirectory" value="output/mielec_taxi_assignment" />
		<!-- Possible values: failIfDirectoryExists, overwriteExistingFiles, deleteDirectoryIfExists -->
		<param name="overwriteFiles" value="deleteDirectoryIfExists" />
		<!-- The type of routing (least cost path) algorithm used, may have the values: [Dijkstra, AStarLandmarks, FastDijkstra, FastAStarLandmarks, SpeedyALT] -->
		<param name="routingAlgorithmType" value="AStarLandmarks" />
		<!-- An identifier for the current run which is used as prefix for output files and mentioned in output xml files etc. -->
		<param name="runId" value="null" />
		<!-- Comma-separated list of visualizer output file formats. `transims', `googleearth', and `otfvis'. -->
		<param name="snapshotFormat" value="" />
		<!-- iterationNumber % writeEventsInterval == 0 defines in which iterations events are written to a file. `0' disables events writing completely. -->
		<param name="writeEventsInterval" value="10" />
		<!-- iterationNumber % writePlansInterval == 0 defines (hopefully) in which iterations plans are written to a file. `0' disables plans writing completely.  Some plans in early iterations are always written -->
		<param name="writePlansInterval" value="10" />
		<!-- iterationNumber % writeSnapshotsInterval == 0 defines in which iterations snapshots are written to a file. `0' disables snapshots writing completely -->
		<param name="writeSnapshotsInterval" value="1" />
		<!-- iterationNumber % writeEventsInterval == 0 defines in which iterations trips CSV are written to a file. `0' disables trips writing completely. -->
		<param name="writeTripsInterval" value="10" />
	</module>
	<module name="counts" >
		<!-- Transport modes that will be respected for the counts comparison. 'car' is default, which includes also bussed from the pt simulation module. Use this parameter in combination with 'filterModes' = true! -->
		<param name="analyzedModes" value="car" />
		<!-- Specifies over how many iterations the link volumes should be averaged that are used for the counts comparison. Use 1 or 0 to only use the link volumes of a single iteration. This values cannot be larger than the value specified for writeCountsInterval -->
		<param name="averageCountsOverIterations" value="5" />
		<!-- factor by which to re-scale the simulated values.  necessary when simulation runs with something different from 100%.  needs to be adapted manually -->
		<param name="countsScaleFactor" value="1.0" />
		<!-- distance to distanceFilterCenterNode to include counting stations. The unit of distance is the Euclidean distance implied by the coordinate system -->
		<param name="distanceFilter" value="null" />
		<!-- node id for center node of distance filter -->
		<param name="distanceFilterCenterNode" value="null" />
		<!-- If true, link counts from legs performed on modes not included in the 'analyzedModes' parameter are ignored. -->
		<param name="filterModes" value="false" />
		<!-- The Coordinates Reference System in which the coordinates are expressed in the input file. At import, the coordinates will be converted to the coordinate system defined in "global", and willbe converted back at export. If not specified, no conversion happens. -->
		<param name="inputCRS" value="null" />
		<!-- input file name to counts package -->
		<param name="inputCountsFile" value="null" />
		<!-- possible values: `html', `kml', `txt', `all' -->
		<param name="outputformat" value="txt" />
		<!-- Specifies how often the counts comparison should be calculated and written. -->
		<param name="writeCountsInterval" value="10" />
	</module>
	<module name="dvrp" >
		<param name="initialTravelTimesFile" value="null" />
		<!-- Mode of which the network will be used for throwing events and hence calculating travel times. Default is car. -->
		<param name="mobsimMode" value="car" />
		<!-- Set of modes of which the network will be used for DVRP travel time estimation and routing DVRP vehicles. Each specific DVRP mode may use a subnetwork of this network for routing vehicles (e.g. DRT buses travelling only along a specified links or serving a limited area). Default is "car" (i.e. single-element set of modes), i.e. the car network is used. Empty value "" (i.e. empty set of modes) means no network filtering, i.e. the original scenario.network is used -->
		<param name="networkModes" value="car" />
		<!-- Used for OFFLINE estimation of travel times for VrpOptimizer by means of the exponential moving average. The weighting decrease, alpha, must be in (0,1]. We suggest small values of alpha, e.g. 0.05. The averaging starts from the initial travel time estimates. If not provided, the free-speed TTs is used as the initial estimates -->
		<param name="travelTimeEstimationAlpha" value="0.05" />
		<!-- Used for ONLINE estimation of travel times for VrpOptimizer by combining WithinDayTravelTime and DvrpOfflineTravelTimeEstimator. The beta coefficient is provided in seconds and should be either 0 (no online estimation) or positive (mixed online-offline estimation). For 'beta = 0', only the offline estimate is used: 'onlineTT(t) = offlineTT(t)', where 'offlineTT(t)' in the offline estimate for TT at time 't', For 'beta > 0', estimating future TTs at time 't', uses the currently observed TT to correct the offline estimates is made: where 'currentTT' is the currently observed TT, and 'correction = min(1, max(0, 1 - (time - currentTime) / beta))' The rule is that correction decreases linearly from 1 (when 'time = currentTime') to 0 (when 'time = currentTime + beta' For 'time > currentTime + beta' correction is 0, whereas if 'time < currentTime' it is 1. If beta is sufficiently large, 'beta >> 0', only the currently observed TT is used. -->
		<param name="travelTimeEstimationBeta" value="0.0" />
		<parameterset type="travelTimeMatrix" >
			<!-- size of square cells (meters) used for computing travel time matrix. Default value is 200 m -->
			<param name="cellSize" value="200" />
		</parameterset>
	</module>
	<module name="facilities" >
		<!-- This defines how facilities should be created. Possible values: none fromFile setInScenario onePerActivityLinkInPlansFile onePerActivityLinkInPlansFileExceptWhenCoordinatesAreGiven onePerActivityLocationInPlansFile  -->
		<param name="facilitiesSource" value="none" />
		<!-- A prefix to be used for auto-generated IDs. -->
		<param name="idPrefix" value="f_auto_" />
		<!-- The Coordinates Reference System in which the coordinates are expressed in the input file. At import, the coordinates will be converted to the coordinate system defined in "global", and willbe converted back at export. If not specified, no conversion happens. -->
		<param name="inputCRS" value="null" />
		<param name="inputFacilitiesFile" value="null" />
		<param name="inputFacilityAttributesFile" value="null" />
		<param name="insistingOnUsingDeprecatedFacilitiesAttributeFile" value="false" />
	</module>
	<module name="global" >
		<param name="coordinateSystem" value="Atlantis" />
		<param name="defaultDelimiter" value=";" />
		<param name="insistingOnDeprecatedConfigVersion" value="true" />
		<!-- "global" number of threads.  This number is used, e.g., for replanning, but NOT in QSim.  This can typically be set to as many cores as you have available, or possibly even slightly more. -->
		<param name="numberOfThreads" value="2" />
		<param name="randomSeed" value="4711" />
	</module>
	<module name="hermes" >
		<!-- Simulation End Time -->
		<param name="endTime" value="30:00:00" />
		<param name="flowCapacityFactor" value="1.0" />
		<param name="mainMode" value="car" />
		<param name="storageCapacityFactor" value="1.0" />
		<!-- time in seconds.  Time after which the frontmost vehicle on a link is called `stuck' if it does not move. Set to Integer.MAX_VALUE to disable this behavior -->
		<param name="stuckTime" value="10" />
		<!-- treats PT as deterministic. PT vehicles will run with a steady speed. Should be used with separate network layers for PT and other network modes. -->
		<param name="useDeterministicPt" value="false" />
	</module>
	<module name="households" >
		<param name="inputFile" value="null" />
		<param name="inputHouseholdAttributesFile" value="null" />
		<param name="insistingOnUsingDeprecatedHouseholdsAttributeFile" value="false" />
	</module>
	<module name="linkStats" >
		<!-- Specifies over how many iterations the link volumes should be averaged that are used for the link statistics. Use 1 or 0 to only use the link volumes of a single iteration. This values cannot be larger than the value specified for writeLinkStatsInterval -->
		<param name="averageLinkStatsOverIterations" value="5" />
		<!-- Specifies how often the link stats should be calculated and written. Use 0 to disable the generation of link stats. -->
		<param name="writeLinkStatsInterval" value="10" />
	</module>
	<module name="multiModeTaxi" >
		<parameterset type="taxi" >
			<!-- Specifies whether the simulation should interrupt if not all requests were performed when an interation ends. Otherwise, a warning is given. True by default. -->
			<param name="breakIfNotAllRequestsServed" value="true" />
			<!-- If true, the startLink is changed to last link in the current schedule, so the taxi starts the next day at the link where it stopped operating the day before. False by default. -->
			<param name="changeStartLinkToLastLinkInSchedule" value="false" />
			<!-- If false, the drop-off location remains unknown to the optimizer and scheduler until the end of pickup. False by default. -->
			<param name="destinationKnown" value="false" />
			<!-- If true, detailed hourly taxi stats are dumped after each iteration. False by default. -->
			<param name="detailedStats" value="true" />
			<!-- Dropoff duration. Must be positive. -->
			<param name="dropoffDuration" value="60.0" />
			<!-- Mode which will be handled by PassengerEngine and VrpOptimizer (passengers'/customers' perspective) -->
			<param name="mode" value="taxi" />
			<!-- If true, vehicles are (GPS-like) monitored while moving. This helps in getting more accurate estimates on the time of arrival. Online tracking is necessary for vehicle diversion. False by default. -->
			<param name="onlineVehicleTracker" value="false" />
			<!-- Pickup duration. Must be positive. -->
			<param name="pickupDuration" value="120.0" />
			<!-- An XML file specifying the taxi fleet. The file format according to dvrp_vehicles_v1.dtd -->
			<param name="taxisFile" value="taxis-25.xml" />
			<!-- If true, writes time profiles of vehicle statuses (i.e. current task type) and the number of unplanned requests are written to a text file (taxi_status_time_profiles) and saved as plots. False by default. -->
			<param name="timeProfiles" value="true" />
			<!-- Limit the operation of vehicles to links (of the 'dvrp_routing' network) with 'allowedModes' containing this 'mode'. For backward compatibility, the value is set to false by default -- this means that the vehicles are allowed to operate on all links of the 'dvrp_routing' network. The 'dvrp_routing' is defined by DvrpConfigGroup.networkModes) -->
			<param name="useModeFilteredSubnetwork" value="false" />
			<!-- If true, vehicles can be diverted during empty trips. Requires online tracking. False by default. -->
			<param name="vehicleDiversion" value="false" />
			<parameterset type="AssignmentTaxiOptimizer" >
				<!-- Specifies the formula used to calculate assgnment cost. See comments in TaxiToRequestAssignmentCostProvider. The default mode is ARRIVAL_TIME (used fro simulating taxis in Berlin). -->
				<param name="mode" value="ARRIVAL_TIME" />
				<!-- Limits the number of open requests considered in the cost matrix calculation to 'nearestRequestsLimit' nearest to a given vehicle (straight line). Used to speed up computations. Depending on the size of fleet, values 20 to 40 make a good trade-off between computational speed and quality of results. To turn off this feature - specify a sufficiently big number (not recommended). The default value is 40 (used for simulating taxis in Berlin). -->
				<param name="nearestRequestsLimit" value="40" />
				<!-- Limits the number of available vehicles considered in the cost matrix calculation to 'nearestRequestsLimit' nearest to a given request (straight line). Used to speed up computations. Depending on the size of fleet, values 20 to 40 make a good trade-off between computational speed and quality of results. To turn off this feature - specify a sufficiently big number (not recommended). The default value is 40 (used for simulating taxis in Berlin). -->
				<param name="nearestVehiclesLimit" value="40" />
				<!-- Specifies the cost for vehicle-request pairs not included in the matrix calculation. Should be high enough to prevent choosing such assignments. The default value is 48 * 3600 seconds (2 days) (used for simulating taxis in Berlin). -->
				<param name="nullPathCost" value="172800.0" />
				<!-- Specifies how often the reoptimization algorithm is executed. Must be a positive integer value. Smaller values mean lower reaction time. However, algorithms that find more than 1 taxi-request matching in each run, such as AssignmentTaxiOptimizer, may produce better results if new requests are buffered over a longer period, e.g. 10 or 30 seconds. Therefore, the default value is algorithm dependent. -->
				<param name="reoptimizationTimeStep" value="10" />
				<!-- Vehicle planning horizon in the case of oversupply. Only vehicles available within the time horizon are considered in the assignment procedure. The value should not be smaller than 'reoptimizationTimeStep'. The default value is 120 seconds (used for simulating taxis in Berlin). Discussion: M. Maciejewski, J. Bischoff, K. Nagel: An assignment-based approach to efficient real-time city-scale taxi dispatching. IEEE Intelligent Systems, 2016. -->
				<param name="vehPlanningHorizonOversupply" value="120.0" />
				<!-- Vehicle planning horizon in the case of undersupply. Only vehicles available within the time horizon are considered in the assignment procedure. The value should not be smaller than 'reoptimizationTimeStep'. The default value is 30 seconds (used for simulating taxis in Berlin). Discussion: M. Maciejewski, J. Bischoff, K. Nagel: An assignment-based approach to efficient real-time city-scale taxi dispatching. IEEE Intelligent Systems, 2016. -->
				<param name="vehPlanningHorizonUndersupply" value="30.0" />
			</parameterset>
			<parameterset type="taxifare" >
				<!-- Basefare per trip (positive or zero value) -->
				<param name="basefare" value="0.0" />
				<!-- Daily subscription fee (positive or zero value) -->
				<param name="dailySubscriptionFee" value="0.0" />
				<!-- taxi fare per meter (positive or zero value) -->
				<param name="distanceFare_m" value="0.0" />
				<!-- Minimum fare per trip (paid instead of the sum of base, time and distance fare if that sum would be lower than the minimum fare, positive or zero value). -->
				<param name="minFarePerTrip" value="0.0" />
				<!-- taxi fare per hour (positive or zero value) -->
				<param name="timeFare_h" value="0.0" />
			</parameterset>
		</parameterset>
	</module>
	<module name="network" >
		<!-- The Coordinates Reference System in which the coordinates are expressed in the input file. At import, the coordinates will be converted to the coordinate system defined in "global", and willbe converted back at export. If not specified, no conversion happens. -->
		<param name="inputCRS" value="null" />
		<param name="inputChangeEventsFile" value="null" />
		<param name="inputNetworkFile" value="network.xml" />
		<param name="laneDefinitionsFile" value="null" />
		<param name="timeVariantNetwork" value="false" />
	</module>
	<module name="otfvis" >
		<!-- The (initial) size of the agents.  Only a range of numbers is allowed, otherwise otfvis aborts rather ungracefully, or displays no agents at all. -->
		<param name="agentSize" value="120.0" />
		<!-- coloring scheme for otfvis.  Currently (2012) allowed values: standard bvg bvg2 byId gtfs taxicab infection -->
		<param name="coloringScheme" value="taxicab" />
		<!-- If non-moving items (e.g. agents at activities, at bus stops, etc.) should be showed.  May affect all non-moving items. -->
		<param name="drawNonMovingItems" value="true" />
		<param name="drawTransitFacilities" value="true" />
		<param name="drawTransitFacilityIds" value="true" />
		<param name="leftMouseFunc" value="Zoom" />
		<!-- The (initial) width of the links of the network. Use positive floating point values. -->
		<param name="linkWidth" value="30.0" />
		<!-- Link width is proportional to `numberOfLanes' or to `capacity'. -->
		<param name="linkwidthIsProportionalTo" value="numberOfLanes" />
		<!-- URL to get WMS tiles from. For a local GeoServer instance, use http://localhost:8080/geoserver/wms?service=WMS& -->
		<param name="mapBaseURL" value="" />
		<!-- The WMS layer to display. For GeoServer and a layer called clipped in workspace mz, use mz:clipped -->
		<param name="mapLayer" value="" />
		<!-- Render everything on top of map tiles. Default: From tiles.openstreetmap.org -->
		<param name="mapOverlayMode" value="false" />
		<param name="middleMouseFunc" value="Pan" />
		<param name="rightMouseFunc" value="Select" />
		<param name="showTeleportation" value="false" />
	</module>
	<module name="parallelEventHandling" >
		<!-- Estimated number of events during mobsim run. An optional optimization hint for the framework. -->
		<param name="estimatedNumberOfEvents" value="null" />
		<!-- Size of the events Queue. Increase for very large scenarios -->
		<param name="eventsQueueSize" value="131072" />
		<!-- Number of threads for parallel events handler. _null_ means the framework decides by itself. 0 is currently not possible. -->
		<param name="numberOfThreads" value="null" />
		<!-- If enabled, each event handler is assigned to its own thread. Note that enabling this feature disabled the numberOfThreads option! This feature is still experimental! -->
		<param name="oneThreadPerHandler" value="false" />
		<!-- If enabled, it is ensured that all events that are created during a time step of the mobility simulation are processed before the next time step is simulated. E.g. neccessary when within-day replanning is used. -->
		<param name="synchronizeOnSimSteps" value="true" />
	</module>
	<module name="planCalcScore" >
		<!-- logit model scale parameter. default: 1.  Has name and default value for historical reasons (see Bryan Raney's phd thesis). -->
		<param name="BrainExpBeta" value="1.0" />
		<param name="PathSizeLogitBeta" value="1.0" />
		<!-- fraction of iterations at which MSA score averaging is started. The matsim theory department suggests to use this together with switching off choice set innovation (where a similar switch exists), but it has not been tested yet. -->
		<param name="fractionOfIterationsToStartScoreMSA" value="null" />
		<!-- new_score = (1-learningRate)*old_score + learningRate * score_from_mobsim.  learning rates close to zero emulate score averaging, but slow down initial convergence -->
		<param name="learningRate" value="1.0" />
		<!-- There used to be a plateau between duration=0 and duration=zeroUtilityDuration. This caused durations to evolve to zero once they were below zeroUtilityDuration, causing problems.  Only use this switch if you need to be backwards compatible with some old results.  (changed nov'13) -->
		<param name="usingOldScoringBelowZeroUtilityDuration" value="false" />
		<!-- write a plans file in each iteration directory which contains what each agent actually did, and the score it received. -->
		<param name="writeExperiencedPlans" value="false" />
		<parameterset type="scoringParameters" >
			<param name="earlyDeparture" value="-0.0" />
			<param name="lateArrival" value="-18.0" />
			<param name="marginalUtilityOfMoney" value="1.0" />
			<param name="performing" value="6.0" />
			<param name="subpopulation" value="null" />
			<param name="utilityOfLineSwitch" value="-1.0" />
			<param name="waiting" value="-0.0" />
			<param name="waitingPt" value="-6.0" />
			<parameterset type="activityParams" >
				<param name="activityType" value="car interaction" />
				<param name="closingTime" value="undefined" />
				<param name="earliestEndTime" value="undefined" />
				<param name="latestStartTime" value="undefined" />
				<param name="minimalDuration" value="undefined" />
				<param name="openingTime" value="undefined" />
				<param name="priority" value="1.0" />
				<param name="scoringThisActivityAtAll" value="false" />
				<!-- typical duration of activity.  needs to be defined and non-zero.  in sec. -->
				<param name="typicalDuration" value="undefined" />
				<!-- method to compute score at typical duration.  Options: | uniform | relative | Use uniform for backwards compatibility (all activities same score; higher proba to drop long acts). -->
				<param name="typicalDurationScoreComputation" value="relative" />
			</parameterset>
			<parameterset type="activityParams" >
				<param name="activityType" value="pt interaction" />
				<param name="closingTime" value="undefined" />
				<param name="earliestEndTime" value="undefined" />
				<param name="latestStartTime" value="undefined" />
				<param name="minimalDuration" value="undefined" />
				<param name="openingTime" value="undefined" />
				<param name="priority" value="1.0" />
				<param name="scoringThisActivityAtAll" value="false" />
				<param name="typicalDuration" value="undefined" />
				<param name="typicalDurationScoreComputation" value="relative" />
			</parameterset>
			<parameterset type="activityParams" >
				<param name="activityType" value="bike interaction" />
				<param name="closingTime" value="undefined" />
				<param name="earliestEndTime" value="undefined" />
				<param name="latestStartTime" value="undefined" />
				<param name="minimalDuration" value="undefined" />
				<param name="openingTime" value="undefined" />
				<param name="priority" value="1.0" />
				<param name="scoringThisActivityAtAll" value="false" />
				<param name="typicalDuration" value="undefined" />
				<param name="typicalDurationScoreComputation" value="relative" />
			</parameterset>
			<parameterset type="activityParams" >
				<param name="activityType" value="drt interaction" />
				<param name="closingTime" value="undefined" />
				<param name="earliestEndTime" value="undefined" />
				<param name="latestStartTime" value="undefined" />
				<param name="minimalDuration" value="undefined" />
				<param name="openingTime" value="undefined" />
				<param name="priority" value="1.0" />
				<param name="scoringThisActivityAtAll" value="false" />
				<param name="typicalDuration" value="undefined" />
				<param name="typicalDurationScoreComputation" value="relative" />
			</parameterset>
			<parameterset type="activityParams" >
				<param name="activityType" value="taxi interaction" />
				<param name="closingTime" value="undefined" />
				<param name="earliestEndTime" value="undefined" />
				<param name="latestStartTime" value="undefined" />
				<param name="minimalDuration" value="undefined" />
				<param name="openingTime" value="undefined" />
				<param name="priority" value="1.0" />
				<param name="scoringThisActivityAtAll" value="false" />
				<param name="typicalDuration" value="undefined" />
				<param name="typicalDurationScoreComputation" value="relative" />
			</parameterset>
			<parameterset type="activityParams" >
				<param name="activityType" value="other interaction" />
				<param name="closingTime" value="undefined" />
				<param name="earliestEndTime" value="undefined" />
				<param name="latestStartTime" value="undefined" />
				<param name="minimalDuration" value="undefined" />
				<param name="openingTime" value="undefined" />
				<param name="priority" value="1.0" />
				<param name="scoringThisActivityAtAll" value="false" />
				<param name="typicalDuration" value="undefined" />
				<param name="typicalDurationScoreComputation" value="relative" />
			</parameterset>
			<parameterset type="activityParams" >
				<param name="activityType" value="walk interaction" />
				<param name="closingTime" value="undefined" />
				<param name="earliestEndTime" value="undefined" />
				<param name="latestStartTime" value="undefined" />
				<param name="minimalDuration" value="undefined" />
				<param name="openingTime" value="undefined" />
				<param name="priority" value="1.0" />
				<param name="scoringThisActivityAtAll" value="false" />
				<param name="typicalDuration" value="undefined" />
				<param name="typicalDurationScoreComputation" value="relative" />
			</parameterset>
			<parameterset type="activityParams" >
				<param name="activityType" value="dummy" />
				<param name="closingTime" value="undefined" />
				<param name="earliestEndTime" value="undefined" />
				<param name="latestStartTime" value="undefined" />
				<param name="minimalDuration" value="undefined" />
				<param name="openingTime" value="undefined" />
				<param name="priority" value="1.0" />
				<param name="scoringThisActivityAtAll" value="true" />
				<param name="typicalDuration" value="24:00:00" />
				<param name="typicalDurationScoreComputation" value="relative" />
			</parameterset>
			<parameterset type="activityParams" >
				<param name="activityType" value="ride interaction" />
				<param name="closingTime" value="undefined" />
				<param name="earliestEndTime" value="undefined" />
				<param name="latestStartTime" value="undefined" />
				<param name="minimalDuration" value="undefined" />
				<param name="openingTime" value="undefined" />
				<param name="priority" value="1.0" />
				<param name="scoringThisActivityAtAll" value="false" />
				<param name="typicalDuration" value="undefined" />
				<param name="typicalDurationScoreComputation" value="relative" />
			</parameterset>
			<parameterset type="modeParams" >
				<!-- [utils] alternative-specific constant.  Normally per trip, but that is probably buggy for multi-leg trips. -->
				<param name="constant" value="0.0" />
				<!-- [money] daily monetary constant. default=0 to be backwards compatible -->
				<param name="dailyMonetaryConstant" value="0.0" />
				<!-- [utils] daily utility constant. default=0 to be backwards compatible -->
				<param name="dailyUtilityConstant" value="0.0" />
				<!-- [utils/m] utility of traveling (e.g. walking or driving) per m, normally negative.  this is on top of the time (dis)utility. -->
				<param name="marginalUtilityOfDistance_util_m" value="0.0" />
				<!-- [utils/hr] additional marginal utility of traveling.  normally negative.  this comes on top of the opportunity cost of time -->
				<param name="marginalUtilityOfTraveling_util_hr" value="-6.0" />
				<param name="mode" value="car" />
				<!-- [unit_of_money/m] conversion of distance into money. Normally negative. -->
				<param name="monetaryDistanceRate" value="0.0" />
			</parameterset>
			<parameterset type="modeParams" >
				<param name="constant" value="0.0" />
				<param name="dailyMonetaryConstant" value="0.0" />
				<param name="dailyUtilityConstant" value="0.0" />
				<param name="marginalUtilityOfDistance_util_m" value="0.0" />
				<param name="marginalUtilityOfTraveling_util_hr" value="-6.0" />
				<param name="mode" value="pt" />
				<param name="monetaryDistanceRate" value="0.0" />
			</parameterset>
			<parameterset type="modeParams" >
				<param name="constant" value="0.0" />
				<param name="dailyMonetaryConstant" value="0.0" />
				<param name="dailyUtilityConstant" value="0.0" />
				<param name="marginalUtilityOfDistance_util_m" value="0.0" />
				<param name="marginalUtilityOfTraveling_util_hr" value="-6.0" />
				<param name="mode" value="walk" />
				<param name="monetaryDistanceRate" value="0.0" />
			</parameterset>
			<parameterset type="modeParams" >
				<param name="constant" value="0.0" />
				<param name="dailyMonetaryConstant" value="0.0" />
				<param name="dailyUtilityConstant" value="0.0" />
				<param name="marginalUtilityOfDistance_util_m" value="0.0" />
				<param name="marginalUtilityOfTraveling_util_hr" value="-6.0" />
				<param name="mode" value="bike" />
				<param name="monetaryDistanceRate" value="0.0" />
			</parameterset>
			<parameterset type="modeParams" >
				<param name="constant" value="0.0" />
				<param name="dailyMonetaryConstant" value="0.0" />
				<param name="dailyUtilityConstant" value="0.0" />
				<param name="marginalUtilityOfDistance_util_m" value="0.0" />
				<param name="marginalUtilityOfTraveling_util_hr" value="-6.0" />
				<param name="mode" value="ride" />
				<param name="monetaryDistanceRate" value="0.0" />
			</parameterset>
			<parameterset type="modeParams" >
				<param name="constant" value="0.0" />
				<param name="dailyMonetaryConstant" value="0.0" />
				<param name="dailyUtilityConstant" value="0.0" />
				<param name="marginalUtilityOfDistance_util_m" value="0.0" />
				<param name="marginalUtilityOfTraveling_util_hr" value="-6.0" />
				<param name="mode" value="other" />
				<param name="monetaryDistanceRate" value="0.0" />
			</parameterset>
			<parameterset type="modeParams" >
				<param name="constant" value="0.0" />
				<param name="dailyMonetaryConstant" value="0.0" />
				<param name="dailyUtilityConstant" value="0.0" />
				<param name="marginalUtilityOfDistance_util_m" value="0.0" />
				<param name="marginalUtilityOfTraveling_util_hr" value="-6.0" />
				<param name="mode" value="taxi" />
				<param name="monetaryDistanceRate" value="0.0" />
			</parameterset>
		</parameterset>
	</module>
	<module name="plans" >
		<!-- String: minOfDurationAndEndTime tryEndTimeThenDuration endTimeOnly. Anything besides minOfDurationAndEndTime will internally use a different (simpler) version of the TimeAllocationMutator. -->
		<param name="activityDurationInterpretation" value="tryEndTimeThenDuration" />
		<!-- Possible values: reject, useMainModeIdentifier -->
		<param name="handlingOfPlansWithoutRoutingMode" value="reject" />
		<!-- The Coordinates Reference System in which the coordinates are expressed in the input file. At import, the coordinates will be converted to the coordinate system defined in "global", and willbe converted back at export. If not specified, no conversion happens. -->
		<param name="inputCRS" value="null" />
		<param name="inputPersonAttributesFile" value="null" />
		<param name="inputPlansFile" value="plans_only_taxi_4.0.xml.gz" />
		<param name="insistingOnUsingDeprecatedPersonAttributeFile" value="false" />
		<!-- Defines how routes are stored in memory. Currently supported: LinkNetworkRoute, CompressedNetworkRoute. -->
		<param name="networkRouteType" value="LinkNetworkRoute" />
		<!-- (not tested) will remove plan attributes that are presumably not used, such as activityStartTime. default=false. Use with Caution! -->
		<param name="removingUnnecessaryPlanAttributes" value="false" />
	</module>
	<module name="planscalcroute" >
		<!-- Some typical teleportation routing params are set by default, such as for walk and bike.  Setting this switch to "true" will clear them.  Note that this will also clear settings for helper modes such as for non_network_walk -->
		<param name="clearDefaultTeleportedModeParams" value="false" />
		<!-- All the modes for which the router is supposed to generate network routes (like car) -->
		<param name="networkModes" value="car" />
		<!-- strength of the randomness for the utility of money in routing under toll.  Leads to Pareto-optimal route with randomly drawn money-vs-other-attributes tradeoff. Technically the width parameter of a log-normal distribution. 3.0 seems to be a good value.  -->
		<param name="routingRandomness" value="3.0" />
		<parameterset type="teleportedModeParameters" >
			<param name="beelineDistanceFactor" value="1.3" />
			<param name="mode" value="bike" />
			<!-- Free-speed factor for a teleported mode. Travel time = teleportedModeFreespeedFactor * <freespeed car travel time>. Insert a line like this for every such mode. Please do not set teleportedModeFreespeedFactor as well as teleportedModeSpeed for the same mode, but if you do, +teleportedModeFreespeedFactor wins over teleportedModeSpeed. -->
			<param name="teleportedModeFreespeedFactor" value="null" />
			<!-- Speed for a teleported mode. Travel time = (<beeline distance> * beelineDistanceFactor) / teleportedModeSpeed. Insert a line like this for every such mode. -->
			<param name="teleportedModeSpeed" value="4.166666666666667" />
		</parameterset>
		<parameterset type="teleportedModeParameters" >
			<param name="beelineDistanceFactor" value="1.3" />
			<param name="mode" value="walk" />
			<param name="teleportedModeFreespeedFactor" value="null" />
			<param name="teleportedModeSpeed" value="0.8333333333333333" />
		</parameterset>
		<parameterset type="teleportedModeParameters" >
			<param name="beelineDistanceFactor" value="1.3" />
			<param name="mode" value="non_network_walk" />
			<param name="teleportedModeFreespeedFactor" value="null" />
			<param name="teleportedModeSpeed" value="0.8333333333333333" />
		</parameterset>
		<parameterset type="teleportedModeParameters" >
			<param name="beelineDistanceFactor" value="1.3" />
			<param name="mode" value="ride" />
			<param name="teleportedModeFreespeedFactor" value="1.0" />
			<param name="teleportedModeSpeed" value="null" />
		</parameterset>
		<parameterset type="teleportedModeParameters" >
			<param name="beelineDistanceFactor" value="1.3" />
			<param name="mode" value="pt" />
			<param name="teleportedModeFreespeedFactor" value="2.0" />
			<param name="teleportedModeSpeed" value="null" />
		</parameterset>
	</module>
	<module name="ptCounts" >
		<!-- factor by which to re-scale the simulated values.  necessary when simulation runs with something different from 100%.  needs to be adapted manually -->
		<param name="countsScaleFactor" value="1.0" />
		<!-- distance to distanceFilterCenterNode to include counting stations. The unit of distance is the Euclidean distance implied by the coordinate system -->
		<param name="distanceFilter" value="null" />
		<!-- node id for center node of distance filter -->
		<param name="distanceFilterCenterNode" value="null" />
		<!-- input file containing the alighting (getting off) counts for pt -->
		<param name="inputAlightCountsFile" value="null" />
		<!-- input file containing the boarding (getting on) counts for pt -->
		<param name="inputBoardCountsFile" value="null" />
		<!-- input file containing the occupancy counts for pt -->
		<param name="inputOccupancyCountsFile" value="null" />
		<!-- possible values: `html', `kml', `txt', `all' -->
		<param name="outputformat" value="null" />
		<!-- every how many iterations (starting with 0) counts comparisons are generated -->
		<param name="ptCountsInterval" value="10" />
	</module>
	<module name="qsim" >
		<param name="endTime" value="undefined" />
		<param name="flowCapacityFactor" value="1.0" />
		<!-- decides if waiting vehicles enter the network after or before the already driving vehicles were moved. Default: false -->
		<param name="insertingWaitingVehiclesBeforeDrivingVehicles" value="true" />
		<!-- If link dynamics is set as SeepageQ, set to false if all seep modes should perform seepage. Default is true (better option). -->
		<param name="isRestrictingSeepage" value="true" />
		<!-- If link dynamics is set as SeepageQ, set to true if seep mode do not consumes any space on the link. Default is false. -->
		<param name="isSeepModeStorageFree" value="false" />
		<!-- default: FIFO; options: FIFO PassingQ SeepageQ -->
		<param name="linkDynamics" value="FIFO" />
		<!-- The (initial) width of the links of the network. Use positive floating point values. This is used only for visualisation. -->
		<param name="linkWidth" value="30.0" />
		<!-- [comma-separated list] Defines which modes are congested modes. Technically, these are the modes that the departure handler of the netsimengine handles.  Effective cell size, effective lane width, flow capacity factor, and storage capacity factor need to be set with diligence.  Need to be vehicular modes to make sense. -->
		<param name="mainMode" value="car" />
		<!-- Shortens a link in the visualization, i.e. its start and end point are moved into towards the center. Does not affect traffic flow.  -->
		<param name="nodeOffset" value="0.0" />
		<!-- Number of threads used for the QSim.  Note that this setting is independent from the "global" threads setting.  In contrast to earlier versions, the non-parallel special version is no longer there. -->
		<param name="numberOfThreads" value="1" />
		<!-- Boolean. `true': stuck vehicles are removed, aborting the plan; `false': stuck vehicles are forced into the next link. `false' is probably the better choice. -->
		<param name="removeStuckVehicles" value="false" />
		<!-- If link dynamics is set as SeepageQ, set a seep mode. Default is bike. -->
		<param name="seepMode" value="bike" />
		<!-- Possible values: minOfEndtimeAndMobsimFinished, onlyUseEndtime -->
		<param name="simEndtimeInterpretation" value="null" />
		<!-- Options: maxOfStarttimeAndEarliestActivityEnd onlyUseStarttime  -->
		<param name="simStarttimeInterpretation" value="onlyUseStarttime" />
		<!-- snapshotStyle. One of: equiDist queue withHoles withHolesAndShowHoles kinematicWaves  -->
		<param name="snapshotStyle" value="queue" />
		<param name="snapshotperiod" value="00:00:00" />
		<param name="startTime" value="undefined" />
		<param name="storageCapacityFactor" value="1.0" />
		<!-- time in seconds.  Time after which the frontmost vehicle on a link is called `stuck' if it does not move. -->
		<param name="stuckTime" value="10.0" />
		<param name="timeStepSize" value="00:00:01" />
		<!-- options: queue withHoles kinematicWaves  -->
		<param name="trafficDynamics" value="queue" />
		<!-- Set this parameter to true if lanes should be used, false if not. -->
		<param name="useLanes" value="false" />
		<!-- If a route does not reference a vehicle, agents will use the vehicle with the same id as their own. -->
		<param name="usePersonIdForMissingVehicleId" value="true" />
		<!-- If false, the qsim accumulates fractional flows up to one flow unit in every time step.  If true, flows are updated only if an agent wants to enter the link or an agent is added to buffer. Default is true. -->
		<param name="usingFastCapacityUpdate" value="true" />
		<!-- Defines what happens if an agent wants to depart, but the specified vehicle is not available. One of: teleport wait exception  -->
		<param name="vehicleBehavior" value="teleport" />
		<!-- If vehicles should all be the same default vehicle, or come from the vehicles file, or something else.  Possible values:  defaultVehicle modeVehicleTypesFromVehiclesData fromVehiclesData -->
		<param name="vehiclesSource" value="defaultVehicle" />
	</module>
	<module name="strategy" >
		<!-- the external executable will be called with a config file as argument.  This is the pathname to a possible skeleton config, to which additional information will be added.  Can be null. -->
		<param name="ExternalExeConfigTemplate" value="null" />
		<!-- time out value (in seconds) after which matsim will consider the external strategy as failed -->
		<param name="ExternalExeTimeOut" value="3600" />
		<!-- root directory for temporary files generated by the external executable. Provided as a service; I don't think this is used by MATSim. -->
		<param name="ExternalExeTmpFileRootDir" value="null" />
		<!-- fraction of iterations where innovative strategies are switched off.  Something like 0.8 should be good.  E.g. if you run from iteration 400 to iteration 500, innovation is switched off at iteration 480 -->
		<param name="fractionOfIterationsToDisableInnovation" value="Infinity" />
		<!-- maximum number of plans per agent.  ``0'' means ``infinity''.  Currently (2010), ``5'' is a good number -->
		<param name="maxAgentPlanMemorySize" value="1" />
		<!-- strategyName of PlanSelector for plans removal.  Possible defaults: WorstPlanSelector SelectRandom SelectExpBetaForRemoval ChangeExpBetaForRemoval PathSizeLogitSelectorForRemoval . The current default, WorstPlanSelector is not a good choice from a discrete choice theoretical perspective. Alternatives, however, have not been systematically tested. kai, feb'12 -->
		<param name="planSelectorForRemoval" value="WorstPlanSelector" />
		<parameterset type="strategysettings" >
			<!-- iteration after which strategy will be disabled.  most useful for ``innovative'' strategies (new routes, new times, ...). Normally, better use fractionOfIterationsToDisableInnovation -->
			<param name="disableAfterIteration" value="-1" />
			<!-- path to external executable (if applicable) -->
			<param name="executionPath" value="null" />
			<!-- strategyName of strategy.  Possible default names: SelectRandom BestScore KeepLastSelected ChangeExpBeta SelectExpBeta SelectPathSizeLogit      (selectors), ReRouteTimeAllocationMutatorTimeAllocationMutator_ReRouteChangeSingleTripModeChangeTripModeSubtourModeChoice (innovative strategies). -->
			<param name="strategyName" value="KeepLastSelected" />
			<!-- subpopulation to which the strategy applies. "null" refers to the default population, that is, the set of persons for which no explicit subpopulation is defined (ie no subpopulation attribute) -->
			<param name="subpopulation" value="null" />
			<!-- weight of a strategy: for each agent, a strategy will be selected with a probability proportional to its weight -->
			<param name="weight" value="1.0" />
		</parameterset>
	</module>
	<module name="subtourModeChoice" >
		<!-- Only for backwards compatibility.  Defines if only trips from modes list should change mode, or all trips.  Options: fromAllModesToSpecifiedModes fromSpecifiedModesToSpecifiedModes  -->
		<param name="behavior" value="fromSpecifiedModesToSpecifiedModes" />
		<!-- Defines the chain-based modes, seperated by commas -->
		<param name="chainBasedModes" value="car,bike" />
		<!-- Defines whether car availability must be considered or not. A agent has no car only if it has no license, or never access to a car -->
		<param name="considerCarAvailability" value="false" />
		<!-- Defines all the modes available, including chain-based modes, seperated by commas -->
		<param name="modes" value="car,pt,bike,walk" />
	</module>
	<module name="transit" >
		<!-- The Coordinates Reference System in which the coordinates are expressed in the input file. At import, the coordinates will be converted to the coordinate system defined in "global", and willbe converted back at export. If not specified, no conversion happens. -->
		<param name="inputScheduleCRS" value="null" />
		<param name="insistingOnUsingDeprecatedAttributeFiles" value="false" />
		<!-- The type of transit routing algorithm used, may have the values: [DijkstraBased, SwissRailRaptor] -->
		<param name="routingAlgorithmType" value="SwissRailRaptor" />
		<!-- Optional input file containing additional attributes for transit lines, stored as ObjectAttributes. -->
		<param name="transitLinesAttributesFile" value="null" />
		<!-- Comma-separated list of transportation modes that are handled as transit. Defaults to 'pt'. -->
		<param name="transitModes" value="pt" />
		<!-- Input file containing the transit schedule to be simulated. -->
		<param name="transitScheduleFile" value="null" />
		<!-- Optional input file containing additional attributes for transit stop facilities, stored as ObjectAttributes. -->
		<param name="transitStopsAttributesFile" value="null" />
		<!-- Set this parameter to true if transit should be simulated, false if not. -->
		<param name="useTransit" value="false" />
		<param name="usingTransitInMobsim" value="true" />
		<!-- Input file containing the vehicles used by the departures in the transit schedule. -->
		<param name="vehiclesFile" value="null" />
	</module>
	<module name="transitRouter" >
		<!-- additional time the router allocates when a line switch happens. Can be interpreted as a 'safety' time that agents need to safely transfer from one line to another -->
		<param name="additionalTransferTime" value="0.0" />
		<!-- Factor with which direct walk generalized cost is multiplied before it is compared to the pt generalized cost.  Set to a very high value to reduce direct walk results. -->
		<param name="directWalkFactor" value="1.0" />
		<!-- step size to increase searchRadius if no stops are found -->
		<param name="extensionRadius" value="200.0" />
		<!-- maximum beeline distance between stops that agents could transfer to by walking -->
		<param name="maxBeelineWalkConnectionDistance" value="100.0" />
		<!-- the radius in which stop locations are searched, given a start or target coordinate -->
		<param name="searchRadius" value="1000.0" />
	</module>
	<module name="travelTimeCalculator" >
		<!-- (only for backwards compatibility; only used if separateModes==false && + filterModes==true)  Transport modes that will be respected by the travel time collector. 'car' is default which includes also buses from the pt simulation module. -->
		<param name="analyzedModes" value="car" />
		<param name="calculateLinkToLinkTravelTimes" value="false" />
		<param name="calculateLinkTravelTimes" value="true" />
		<!-- (only for backwards compatiblity; only used if separateModes==false)  Only modes included in analyzedModes are included. -->
		<param name="filterModes" value="false" />
		<!-- The lenght (in sec) of the time period that is splited into time bins; an additional time bin is created to aggregate all travel times collected after maxTime -->
		<param name="maxTime" value="108000" />
		<!-- (only for backwards compatibility) If false, link travel times are measured and aggregated over all vehicles using the link. -->
		<param name="separateModes" value="true" />
		<!-- How to deal with congested time bins that have no link entry events. `optimistic' assumes free speed (too optimistic); 'experimental_LastMile' is experimental and probably too pessimistic. -->
		<param name="travelTimeAggregator" value="optimistic" />
		<!-- The size of the time bin (in sec) into which the link travel times are aggregated for the router -->
		<param name="travelTimeBinSize" value="900" />
		<!-- possible values: TravelTimeCalculatorArray TravelTimeCalculatorHashMap  -->
		<param name="travelTimeCalculator" value="TravelTimeCalculatorArray" />
		<!-- How to deal with link entry times at different positions during the time bin. Currently supported: average, linearinterpolation -->
		<param name="travelTimeGetter" value="average" />
	</module>
	<module name="vehicles" >
		<param name="vehiclesFile" value="null" />
	</module>
	<module name="vspExperimental" >
		<!-- (do not use except of you have to) There was a problem with pt interaction scoring.  Some people solved it by overwriting the parameters of the pt interaction activity type.  Doing this now throws an Exception.  If you still insist on doing this, set the following to true. -->
		<param name="isAbleToOverwritePtInteractionParams" value="false" />
		<param name="isGeneratingBoardingDeniedEvent" value="false" />
		<!-- if an approximation of the opportunity cost of time is included into the radius calculation for location choice.`true' will be faster, but it is an approximation.  Default is `true'; `false' is available for backwards compatibility. -->
		<param name="isUsingOpportunityCostOfTimeForLocationChoice" value="true" />
		<param name="logitScaleParamForPlansRemoval" value="1.0" />
		<!-- Options: | ignore | info | warn | abort | .  When violating VSP defaults, this results in nothing, logfile infos, logfile warnings, or aborts.  Members of VSP should use `abort' or talk to kai. -->
		<param name="vspDefaultsCheckingLevel" value="ignore" />
		<!-- if true then writes output_events in output directory.  default is `false'. Will only work when lastIteration is multiple of events writing interval -->
		<param name="writingOutputEvents" value="true" />
	</module>

</config>

2021-06-22T22:45:01,392  INFO ControlerUtils:84 Complete config dump done.
2021-06-22T22:45:01,392  INFO ControlerUtils:85 Checking consistency of config...
2021-06-22T22:45:01,392  INFO PlanCalcScoreConfigGroup$ScoringParameterSet:1547 NO OPENING OR CLOSING TIMES DEFINED!

There is no activity type that has an opening *and* closing time (or opening time and late penalty) defined.
This usually means that the activity chains can be shifted by an arbitrary
number of hours without having an effect on the score of the plans, and thus
resulting in wrong results / traffic patterns.
If you are using MATSim without time adaptation, you can ignore this warning.


2021-06-22T22:45:01,392  INFO VspConfigConsistencyCheckerImpl:59 NOT running vsp config consistency check because vsp defaults checking level is set to IGNORE
2021-06-22T22:45:01,401  INFO ControlerUtils:87 Checking consistency of config done.
2021-06-22T22:45:01,421  WARN PrepareForSimImpl:222 'usePersonIdForMissingVehicleId' is deprecated. It will be removed soon.
2021-06-22T22:45:01,422  INFO Counter:69 [VehiclesImpl] added vehicle # 1
2021-06-22T22:45:01,422  INFO Counter:69 [VehiclesImpl] added vehicle # 2
2021-06-22T22:45:01,422  INFO Counter:69 [VehiclesImpl] added vehicle # 4
2021-06-22T22:45:01,422  INFO Counter:69 [VehiclesImpl] added vehicle # 8
2021-06-22T22:45:01,422  INFO Counter:69 [VehiclesImpl] added vehicle # 16
2021-06-22T22:45:01,423  INFO Counter:69 [VehiclesImpl] added vehicle # 32
2021-06-22T22:45:01,423  INFO Counter:69 [VehiclesImpl] added vehicle # 64
2021-06-22T22:45:01,424  INFO Counter:69 [VehiclesImpl] added vehicle # 128
2021-06-22T22:45:01,427  INFO Counter:69 [VehiclesImpl] added vehicle # 256
2021-06-22T22:45:01,430  INFO Counter:69 [VehiclesImpl] added vehicle # 512
2021-06-22T22:45:01,439  INFO Counter:69 [VehiclesImpl] added vehicle # 1024
2021-06-22T22:45:01,468  INFO PreProcessDijkstra:118 nodes in dead ends: 17 (total nodes: 214). Done in 4 ms
2021-06-22T22:45:01,468  WARN PreProcessEuclidean:59 There are links with stored length smaller than their Euclidean distance in this network. Thus, A* cannot guarantee to calculate the least-cost paths between two nodes.
2021-06-22T22:45:01,469  INFO PreProcessLandmarks:112 Putting landmarks on network...
2021-06-22T22:45:01,470  INFO LandmarkerPieSlices:96 Filling sectors...
2021-06-22T22:45:01,473  INFO LandmarkerPieSlices:107 Refining landmarks...
2021-06-22T22:45:01,473  INFO LandmarkerPieSlices:109 done
2021-06-22T22:45:01,473  INFO PreProcessLandmarks:115 done in 4 ms
2021-06-22T22:45:01,473  INFO PreProcessLandmarks:117 Initializing landmarks data
2021-06-22T22:45:01,474  INFO PreProcessLandmarks:129 Calculating distance from each node to each of the 16 landmarks using 2 threads...
2021-06-22T22:45:01,475  INFO PreProcessLandmarks:139 wait for landmarks Calculator to finish...
2021-06-22T22:45:01,502  INFO PreProcessLandmarks:163 done in 27 ms
2021-06-22T22:45:01,505  INFO NetworkImpl:163  node # 1
2021-06-22T22:45:01,505  INFO NetworkImpl:163  node # 4
2021-06-22T22:45:01,505  INFO NetworkImpl:163  node # 16
2021-06-22T22:45:01,505  INFO NetworkImpl:163  node # 64
2021-06-22T22:45:01,505  INFO NetworkImpl:159  link # 1
2021-06-22T22:45:01,505  INFO NetworkImpl:159  link # 4
2021-06-22T22:45:01,505  INFO NetworkImpl:159  link # 16
2021-06-22T22:45:01,506  INFO NetworkImpl:159  link # 64
2021-06-22T22:45:01,506  INFO NetworkImpl:159  link # 256
2021-06-22T22:45:01,508  WARN RandomizingTimeDistanceTravelDisutilityFactory:112 There will be no routing randomness. The randomization of the travel disutility requires the monetary distance rate to be different than zero. Continuing anyway.
2021-06-22T22:45:01,509  WARN RandomizingTimeDistanceTravelDisutilityFactory:117 There will be no routing randomness. The randomization of the travel disutility requires the travel time cost rate to be different than zero. Continuing anyway.
2021-06-22T22:45:01,509  INFO RandomizingTimeDistanceTravelDisutilityFactory:85  sigma: 3.0; resulting normalization: 0.011108996538242306
2021-06-22T22:45:01,512  INFO PreProcessDijkstra:118 nodes in dead ends: 17 (total nodes: 214). Done in 2 ms
2021-06-22T22:45:01,512  WARN PreProcessEuclidean:59 There are links with stored length smaller than their Euclidean distance in this network. Thus, A* cannot guarantee to calculate the least-cost paths between two nodes.
2021-06-22T22:45:01,512  INFO PreProcessLandmarks:112 Putting landmarks on network...
2021-06-22T22:45:01,512  INFO LandmarkerPieSlices:96 Filling sectors...
2021-06-22T22:45:01,514  INFO LandmarkerPieSlices:107 Refining landmarks...
2021-06-22T22:45:01,514  INFO LandmarkerPieSlices:109 done
2021-06-22T22:45:01,514  INFO PreProcessLandmarks:115 done in 2 ms
2021-06-22T22:45:01,514  INFO PreProcessLandmarks:117 Initializing landmarks data
2021-06-22T22:45:01,515  INFO PreProcessLandmarks:129 Calculating distance from each node to each of the 16 landmarks using 2 threads...
2021-06-22T22:45:01,516  INFO PreProcessLandmarks:139 wait for landmarks Calculator to finish...
2021-06-22T22:45:01,531  INFO PreProcessLandmarks:163 done in 15 ms
2021-06-22T22:45:01,537  INFO PreProcessDijkstra:118 nodes in dead ends: 17 (total nodes: 214). Done in 1 ms
2021-06-22T22:45:01,537  WARN PreProcessEuclidean:59 There are links with stored length smaller than their Euclidean distance in this network. Thus, A* cannot guarantee to calculate the least-cost paths between two nodes.
2021-06-22T22:45:01,537  INFO PreProcessLandmarks:112 Putting landmarks on network...
2021-06-22T22:45:01,538  INFO LandmarkerPieSlices:96 Filling sectors...
2021-06-22T22:45:01,538  INFO LandmarkerPieSlices:107 Refining landmarks...
2021-06-22T22:45:01,538  INFO LandmarkerPieSlices:109 done
2021-06-22T22:45:01,539  INFO PreProcessLandmarks:115 done in 2 ms
2021-06-22T22:45:01,539  INFO PreProcessLandmarks:117 Initializing landmarks data
2021-06-22T22:45:01,539  INFO PreProcessLandmarks:129 Calculating distance from each node to each of the 16 landmarks using 2 threads...
2021-06-22T22:45:01,539  INFO PreProcessLandmarks:139 wait for landmarks Calculator to finish...
2021-06-22T22:45:01,549  INFO PreProcessLandmarks:163 done in 9 ms
2021-06-22T22:45:01,552  INFO RandomizingTimeDistanceTravelDisutilityFactory:85  sigma: 3.0; resulting normalization: 0.011108996538242306
2021-06-22T22:45:01,553  INFO Counter:67 [PersonPrepareForSim] handled person # 2
2021-06-22T22:45:01,553  INFO Counter:67 [PersonPrepareForSim] handled person # 1
2021-06-22T22:45:01,554  INFO Counter:67 [PersonPrepareForSim] handled person # 4
2021-06-22T22:45:01,554  INFO Counter:67 [PersonPrepareForSim] handled person # 8
2021-06-22T22:45:01,554  INFO Counter:67 [PersonPrepareForSim] handled person # 16
2021-06-22T22:45:01,554  INFO Counter:67 [PersonPrepareForSim] handled person # 32
2021-06-22T22:45:01,554  INFO Counter:67 [PersonPrepareForSim] handled person # 64
2021-06-22T22:45:01,554  INFO Counter:67 [PersonPrepareForSim] handled person # 128
2021-06-22T22:45:01,554  INFO Counter:67 [PersonPrepareForSim] handled person # 256
2021-06-22T22:45:01,555  INFO Counter:67 [PersonPrepareForSim] handled person # 512
2021-06-22T22:45:01,555  INFO Counter:67 [PersonPrepareForSim] handled person # 1024
2021-06-22T22:45:01,557  INFO Counter:74 [PersonPrepareForSim] handled person # 1640
2021-06-22T22:45:01,558  INFO AbstractController:133 ###################################################
2021-06-22T22:45:01,558  INFO AbstractController:134 ### ITERATION 0 BEGINS
2021-06-22T22:45:01,559  INFO ControlerListenerManagerImpl:145 calling notifyIterationStarts on org.matsim.analysis.LegHistogramListener
2021-06-22T22:45:01,559  INFO ControlerListenerManagerImpl:145 calling notifyIterationStarts on org.matsim.analysis.LinkStatsControlerListener
2021-06-22T22:45:01,559  INFO ControlerListenerManagerImpl:145 calling notifyIterationStarts on org.matsim.core.replanning.ReplanningContextImpl
2021-06-22T22:45:01,559  INFO ControlerListenerManagerImpl:145 calling notifyIterationStarts on org.matsim.core.scoring.ScoringFunctionsForPopulation$1
2021-06-22T22:45:01,583  INFO ControlerListenerManagerImpl:145 calling notifyIterationStarts on org.matsim.core.scoring.ExperiencedPlansServiceImpl$1
2021-06-22T22:45:01,586  INFO ControlerListenerManagerImpl:148 [it.0] all ControlerIterationStartsListeners called.
2021-06-22T22:45:01,587  INFO ControlerListenerManagerImpl:224 calling notifyBeforeMobsim on org.matsim.core.controler.corelisteners.EventsHandlingImpl
2021-06-22T22:45:01,587  INFO EventsManagerImpl:190 resetting Event-Handlers
2021-06-22T22:45:01,587  INFO EventsManagerImpl:197   org.matsim.core.trafficmonitoring.TravelTimeCalculator
2021-06-22T22:45:01,587  INFO EventsManagerImpl:197   org.matsim.contrib.taxi.fare.TaxiFareHandler
2021-06-22T22:45:01,587  INFO EventsManagerImpl:197   org.matsim.core.scoring.EventsToLegsAndActivities
2021-06-22T22:45:01,588  INFO EventsManagerImpl:197   org.matsim.analysis.VolumesAnalyzer
2021-06-22T22:45:01,588  INFO EventsManagerImpl:197   org.matsim.core.scoring.ScoringFunctionsForPopulation
2021-06-22T22:45:01,588  INFO EventsManagerImpl:197   org.matsim.analysis.LegHistogram
2021-06-22T22:45:01,588  INFO EventsManagerImpl:197   org.matsim.analysis.CalcLegTimes
2021-06-22T22:45:01,594  INFO EventsManagerImpl:160 adding Event-Handler: org.matsim.core.events.algorithms.EventWriterXML
2021-06-22T22:45:01,594  INFO EventsManagerImpl:166   org.matsim.core.events.algorithms.EventWriter
2021-06-22T22:45:01,594  INFO EventsManagerImpl:166   org.matsim.core.events.handler.BasicEventHandler
2021-06-22T22:45:01,594  INFO EventsManagerImpl:227     > org.matsim.api.core.v01.events.Event
2021-06-22T22:45:01,594  INFO EventsManagerImpl:176 
2021-06-22T22:45:01,594  INFO EventsManagerImpl:160 adding Event-Handler: org.matsim.core.events.algorithms.EventWriterXML
2021-06-22T22:45:01,595  INFO EventsManagerImpl:166   org.matsim.core.events.algorithms.EventWriter
2021-06-22T22:45:01,595  INFO EventsManagerImpl:166   org.matsim.core.events.handler.BasicEventHandler
2021-06-22T22:45:01,595  INFO EventsManagerImpl:227     > org.matsim.api.core.v01.events.Event
2021-06-22T22:45:01,595  INFO EventsManagerImpl:176 
2021-06-22T22:45:01,595  INFO ControlerListenerManagerImpl:224 calling notifyBeforeMobsim on org.matsim.core.controler.corelisteners.PlansDumpingImpl
2021-06-22T22:45:01,595  INFO PlansDumpingImpl:76 dumping plans...
2021-06-22T22:45:01,789  INFO Counter:67 [PopulationWriter] dumped person # 1
2021-06-22T22:45:01,789  INFO Counter:67 [PopulationWriter] dumped person # 2
2021-06-22T22:45:01,790  INFO Counter:67 [PopulationWriter] dumped person # 4
2021-06-22T22:45:01,790  INFO Counter:67 [PopulationWriter] dumped person # 8
2021-06-22T22:45:01,791  INFO Counter:67 [PopulationWriter] dumped person # 16
2021-06-22T22:45:01,792  INFO Counter:67 [PopulationWriter] dumped person # 32
2021-06-22T22:45:01,794  INFO Counter:67 [PopulationWriter] dumped person # 64
2021-06-22T22:45:01,799  INFO Counter:67 [PopulationWriter] dumped person # 128
2021-06-22T22:45:01,806  INFO Counter:67 [PopulationWriter] dumped person # 256
2021-06-22T22:45:01,821  INFO Counter:67 [PopulationWriter] dumped person # 512
2021-06-22T22:45:01,847  INFO Counter:67 [PopulationWriter] dumped person # 1024
2021-06-22T22:45:01,865  INFO PopulationWriter:144 Population written to: output/mielec_taxi_assignment/ITERS/it.0/0.plans.xml.gz
2021-06-22T22:45:01,866  INFO Counter:74 [PopulationWriter] dumped person # 1640
2021-06-22T22:45:01,866  INFO PlansDumpingImpl:93 finished plans dump.
2021-06-22T22:45:01,867  INFO ControlerListenerManagerImpl:229 calling notifyBeforeMobsim on org.matsim.core.population.VspPlansCleaner
2021-06-22T22:45:01,871  INFO ControlerListenerManagerImpl:232 [it.0] all ControlerBeforeMobsimListeners called.
2021-06-22T22:45:01,872  INFO RandomizingTimeDistanceTravelDisutilityFactory:85  sigma: 3.0; resulting normalization: 0.011108996538242306
2021-06-22T22:45:01,873  INFO RandomizingTimeDistanceTravelDisutilityFactory:85  sigma: 3.0; resulting normalization: 0.011108996538242306
2021-06-22T22:45:01,874  INFO Counter:67 [PersonPrepareForSim] handled person # 2
2021-06-22T22:45:01,874  INFO Counter:67 [PersonPrepareForSim] handled person # 1
2021-06-22T22:45:01,876  INFO Counter:67 [PersonPrepareForSim] handled person # 4
2021-06-22T22:45:01,876  INFO Counter:67 [PersonPrepareForSim] handled person # 8
2021-06-22T22:45:01,877  INFO Counter:67 [PersonPrepareForSim] handled person # 16
2021-06-22T22:45:01,877  INFO Counter:67 [PersonPrepareForSim] handled person # 32
2021-06-22T22:45:01,877  INFO Counter:67 [PersonPrepareForSim] handled person # 64
2021-06-22T22:45:01,877  INFO Counter:67 [PersonPrepareForSim] handled person # 128
2021-06-22T22:45:01,877  INFO Counter:67 [PersonPrepareForSim] handled person # 256
2021-06-22T22:45:01,877  INFO Counter:67 [PersonPrepareForSim] handled person # 512
2021-06-22T22:45:01,877  INFO Counter:67 [PersonPrepareForSim] handled person # 1024
2021-06-22T22:45:01,878  INFO Counter:74 [PersonPrepareForSim] handled person # 1640
2021-06-22T22:45:01,967  INFO MobsimListenerManager:49 calling addQueueSimulationListener
2021-06-22T22:45:01,967  INFO MobsimListenerManager:53   assigned class org.matsim.core.mobsim.framework.listeners.MobsimListener to interface org.matsim.contrib.dvrp.trafficmonitoring.DvrpOfflineTravelTimeEstimator
2021-06-22T22:45:01,967  INFO MobsimListenerManager:53   assigned class org.matsim.core.mobsim.framework.listeners.MobsimListener to interface org.matsim.core.mobsim.framework.listeners.MobsimListener
2021-06-22T22:45:01,967  INFO MobsimListenerManager:53   assigned class org.matsim.core.mobsim.framework.listeners.MobsimListener to interface org.matsim.core.mobsim.framework.listeners.MobsimBeforeCleanupListener
2021-06-22T22:45:01,967  INFO MobsimListenerManager:49 calling addQueueSimulationListener
2021-06-22T22:45:01,967  INFO MobsimListenerManager:53   assigned class org.matsim.core.mobsim.framework.listeners.MobsimListener to interface org.matsim.core.mobsim.framework.listeners.MobsimInitializedListener
2021-06-22T22:45:01,967  INFO MobsimListenerManager:53   assigned class org.matsim.core.mobsim.framework.listeners.MobsimListener to interface org.matsim.vis.snapshotwriters.SnapshotWriterManager
2021-06-22T22:45:01,968  INFO MobsimListenerManager:53   assigned class org.matsim.core.mobsim.framework.listeners.MobsimListener to interface org.matsim.core.mobsim.framework.listeners.MobsimAfterSimStepListener
2021-06-22T22:45:01,968  INFO MobsimListenerManager:53   assigned class org.matsim.core.mobsim.framework.listeners.MobsimListener to interface org.matsim.core.mobsim.framework.listeners.MobsimListener
2021-06-22T22:45:01,968  INFO MobsimListenerManager:53   assigned class org.matsim.core.mobsim.framework.listeners.MobsimListener to interface org.matsim.core.mobsim.framework.listeners.MobsimBeforeCleanupListener
2021-06-22T22:45:01,982  INFO PreProcessDijkstra:118 nodes in dead ends: 17 (total nodes: 214). Done in 1 ms
2021-06-22T22:45:01,982  WARN PreProcessEuclidean:59 There are links with stored length smaller than their Euclidean distance in this network. Thus, A* cannot guarantee to calculate the least-cost paths between two nodes.
2021-06-22T22:45:01,982  INFO PreProcessLandmarks:112 Putting landmarks on network...
2021-06-22T22:45:01,983  INFO LandmarkerPieSlices:96 Filling sectors...
2021-06-22T22:45:01,983  INFO LandmarkerPieSlices:107 Refining landmarks...
2021-06-22T22:45:01,984  INFO LandmarkerPieSlices:109 done
2021-06-22T22:45:01,984  INFO PreProcessLandmarks:115 done in 2 ms
2021-06-22T22:45:01,984  INFO PreProcessLandmarks:117 Initializing landmarks data
2021-06-22T22:45:01,984  INFO PreProcessLandmarks:129 Calculating distance from each node to each of the 16 landmarks using 2 threads...
2021-06-22T22:45:01,984  INFO PreProcessLandmarks:139 wait for landmarks Calculator to finish...
2021-06-22T22:45:01,989  INFO PreProcessLandmarks:163 done in 4 ms
2021-06-22T22:45:02,000  INFO PreProcessDijkstra:118 nodes in dead ends: 17 (total nodes: 214). Done in 1 ms
2021-06-22T22:45:02,001  WARN PreProcessEuclidean:59 There are links with stored length smaller than their Euclidean distance in this network. Thus, A* cannot guarantee to calculate the least-cost paths between two nodes.
2021-06-22T22:45:02,022  INFO RandomizingTimeDistanceTravelDisutilityFactory:85  sigma: 3.0; resulting normalization: 0.011108996538242306
2021-06-22T22:45:02,051  INFO EventsManagerImpl:160 adding Event-Handler: org.matsim.contrib.dvrp.passenger.DefaultPassengerEngine
2021-06-22T22:45:02,051  INFO EventsManagerImpl:166   org.matsim.contrib.dvrp.passenger.PassengerEngine
2021-06-22T22:45:02,052  INFO EventsManagerImpl:166   org.matsim.contrib.dvrp.passenger.PassengerRequestRejectedEventHandler
2021-06-22T22:45:02,052  INFO EventsManagerImpl:227     > org.matsim.contrib.dvrp.passenger.PassengerRequestRejectedEvent
2021-06-22T22:45:02,052  INFO EventsManagerImpl:176 
2021-06-22T22:45:02,052  INFO EventsManagerImpl:160 adding Event-Handler: org.matsim.contrib.dvrp.passenger.DefaultPassengerEngine
2021-06-22T22:45:02,052  INFO EventsManagerImpl:166   org.matsim.contrib.dvrp.passenger.PassengerEngine
2021-06-22T22:45:02,052  INFO EventsManagerImpl:166   org.matsim.contrib.dvrp.passenger.PassengerRequestRejectedEventHandler
2021-06-22T22:45:02,052  INFO EventsManagerImpl:227     > org.matsim.contrib.dvrp.passenger.PassengerRequestRejectedEvent
2021-06-22T22:45:02,052  INFO EventsManagerImpl:176 
2021-06-22T22:45:02,054  INFO QSimProvider:115 Added MobsimEngine class org.matsim.core.mobsim.qsim.ActivityEngineDefaultImpl
2021-06-22T22:45:02,054  INFO QSimProvider:121 Added Activityhandler class org.matsim.core.mobsim.qsim.ActivityEngineDefaultImpl
2021-06-22T22:45:02,054  INFO QSimProvider:127 Added DepartureHandler class org.matsim.core.mobsim.qsim.qnetsimengine.VehicularDepartureHandler
2021-06-22T22:45:02,054  INFO QSimProvider:115 Added MobsimEngine class org.matsim.core.mobsim.qsim.qnetsimengine.QNetsimEngineWithThreadpool
2021-06-22T22:45:02,054  INFO QSimProvider:115 Added MobsimEngine class org.matsim.core.mobsim.qsim.DefaultTeleportationEngine
2021-06-22T22:45:02,054  INFO QSimProvider:127 Added DepartureHandler class org.matsim.core.mobsim.qsim.DefaultTeleportationEngine
2021-06-22T22:45:02,054  INFO QSimProvider:133 Added AgentSource class org.matsim.core.mobsim.qsim.agents.PopulationAgentSource
2021-06-22T22:45:02,054  INFO MobsimListenerManager:49 calling addQueueSimulationListener
2021-06-22T22:45:02,054  INFO MobsimListenerManager:53   assigned class org.matsim.core.mobsim.framework.listeners.MobsimListener to interface org.matsim.core.mobsim.qsim.messagequeueengine.MessageQueueEngine
2021-06-22T22:45:02,054  INFO MobsimListenerManager:53   assigned class org.matsim.core.mobsim.framework.listeners.MobsimListener to interface org.matsim.core.mobsim.framework.listeners.MobsimBeforeSimStepListener
2021-06-22T22:45:02,054  INFO MobsimListenerManager:53   assigned class org.matsim.core.mobsim.framework.listeners.MobsimListener to interface org.matsim.core.mobsim.framework.listeners.MobsimListener
2021-06-22T22:45:02,055  INFO QSimProvider:139 Added MobsimListener class org.matsim.core.mobsim.qsim.messagequeueengine.MessageQueueEngine
2021-06-22T22:45:02,055  INFO QSimProvider:115 Added MobsimEngine class org.matsim.contrib.dynagent.run.DynActivityEngine
2021-06-22T22:45:02,055  INFO QSimProvider:121 Added Activityhandler class org.matsim.contrib.dynagent.run.DynActivityEngine
2021-06-22T22:45:02,056  WARN EditTrips:111 no TransitStopAgentTracker found in qsim. Replanning of pt/transit legs will not work properly and will likely fail.
2021-06-22T22:45:02,056  INFO QSimProvider:115 Added MobsimEngine class org.matsim.core.mobsim.qsim.PreplanningEngine
2021-06-22T22:45:02,056  INFO MobsimListenerManager:49 calling addQueueSimulationListener
2021-06-22T22:45:02,056  INFO MobsimListenerManager:53   assigned class org.matsim.core.mobsim.framework.listeners.MobsimListener to interface org.matsim.contrib.taxi.util.stats.TaxiStatsDumper
2021-06-22T22:45:02,056  INFO MobsimListenerManager:53   assigned class org.matsim.core.mobsim.framework.listeners.MobsimListener to interface org.matsim.core.mobsim.framework.listeners.MobsimListener
2021-06-22T22:45:02,056  INFO MobsimListenerManager:53   assigned class org.matsim.core.mobsim.framework.listeners.MobsimListener to interface org.matsim.core.mobsim.framework.listeners.MobsimBeforeCleanupListener
2021-06-22T22:45:02,056  INFO QSimProvider:139 Added MobsimListener class org.matsim.contrib.taxi.util.stats.TaxiStatsDumper
2021-06-22T22:45:02,057  INFO MobsimListenerManager:49 calling addQueueSimulationListener
2021-06-22T22:45:02,057  INFO MobsimListenerManager:53   assigned class org.matsim.core.mobsim.framework.listeners.MobsimListener to interface org.matsim.core.mobsim.framework.listeners.MobsimInitializedListener
2021-06-22T22:45:02,057  INFO MobsimListenerManager:53   assigned class org.matsim.core.mobsim.framework.listeners.MobsimListener to interface org.matsim.contrib.dvrp.run.QSimScopeObjectListenerModule$$Lambda$260/0x0000000000000000
2021-06-22T22:45:02,057  INFO MobsimListenerManager:53   assigned class org.matsim.core.mobsim.framework.listeners.MobsimListener to interface org.matsim.core.mobsim.framework.listeners.MobsimListener
2021-06-22T22:45:02,057  INFO QSimProvider:139 Added MobsimListener class org.matsim.contrib.dvrp.run.QSimScopeObjectListenerModule$$Lambda$260/0x0000000000000000
2021-06-22T22:45:02,057  INFO QSimProvider:133 Added AgentSource class org.matsim.contrib.dvrp.vrpagent.VrpAgentSource
2021-06-22T22:45:02,058  INFO QSimProvider:115 Added MobsimEngine class org.matsim.contrib.dvrp.passenger.DefaultPassengerEngine
2021-06-22T22:45:02,058  INFO QSimProvider:127 Added DepartureHandler class org.matsim.contrib.dvrp.passenger.DefaultPassengerEngine
2021-06-22T22:45:02,058  INFO MobsimListenerManager:49 calling addQueueSimulationListener
2021-06-22T22:45:02,058  INFO MobsimListenerManager:53   assigned class org.matsim.core.mobsim.framework.listeners.MobsimListener to interface org.matsim.contrib.taxi.optimizer.TaxiOptimizer
2021-06-22T22:45:02,058  INFO MobsimListenerManager:53   assigned class org.matsim.core.mobsim.framework.listeners.MobsimListener to interface org.matsim.core.mobsim.framework.listeners.MobsimBeforeSimStepListener
2021-06-22T22:45:02,058  INFO MobsimListenerManager:53   assigned class org.matsim.core.mobsim.framework.listeners.MobsimListener to interface org.matsim.contrib.taxi.optimizer.DefaultTaxiOptimizer
2021-06-22T22:45:02,058  INFO MobsimListenerManager:53   assigned class org.matsim.core.mobsim.framework.listeners.MobsimListener to interface org.matsim.core.mobsim.framework.listeners.MobsimListener
2021-06-22T22:45:02,058  INFO QSimProvider:139 Added MobsimListener class org.matsim.contrib.taxi.optimizer.DefaultTaxiOptimizer
2021-06-22T22:45:02,058  INFO MobsimListenerManager:49 calling addQueueSimulationListener
2021-06-22T22:45:02,058  INFO MobsimListenerManager:53   assigned class org.matsim.core.mobsim.framework.listeners.MobsimListener to interface org.matsim.contrib.taxi.util.TaxiSimulationConsistencyChecker
2021-06-22T22:45:02,058  INFO MobsimListenerManager:53   assigned class org.matsim.core.mobsim.framework.listeners.MobsimListener to interface org.matsim.core.mobsim.framework.listeners.MobsimListener
2021-06-22T22:45:02,058  INFO MobsimListenerManager:53   assigned class org.matsim.core.mobsim.framework.listeners.MobsimListener to interface org.matsim.core.mobsim.framework.listeners.MobsimBeforeCleanupListener
2021-06-22T22:45:02,058  INFO QSimProvider:139 Added MobsimListener class org.matsim.contrib.taxi.util.TaxiSimulationConsistencyChecker
2021-06-22T22:45:02,067  INFO MobsimListenerManager:49 calling addQueueSimulationListener
2021-06-22T22:45:02,067  INFO MobsimListenerManager:53   assigned class org.matsim.core.mobsim.framework.listeners.MobsimListener to interface org.matsim.contrib.util.timeprofile.TimeProfileCollector
2021-06-22T22:45:02,067  INFO MobsimListenerManager:53   assigned class org.matsim.core.mobsim.framework.listeners.MobsimListener to interface org.matsim.core.mobsim.framework.listeners.MobsimBeforeSimStepListener
2021-06-22T22:45:02,067  INFO MobsimListenerManager:53   assigned class org.matsim.core.mobsim.framework.listeners.MobsimListener to interface org.matsim.core.mobsim.framework.listeners.MobsimListener
2021-06-22T22:45:02,067  INFO MobsimListenerManager:53   assigned class org.matsim.core.mobsim.framework.listeners.MobsimListener to interface org.matsim.core.mobsim.framework.listeners.MobsimBeforeCleanupListener
2021-06-22T22:45:02,068  INFO QSimProvider:139 Added MobsimListener class org.matsim.contrib.util.timeprofile.TimeProfileCollector
2021-06-22T22:45:02,072  INFO PopulationUtils:1194 adding scenario element for allpersons container
2021-06-22T22:45:02,072  INFO PopulationImpl:105  person # 1
2021-06-22T22:45:02,072  INFO PopulationImpl:105  person # 4
2021-06-22T22:45:02,072  INFO PopulationImpl:105  person # 16
2021-06-22T22:45:02,073  INFO PopulationImpl:105  person # 64
2021-06-22T22:45:02,075  INFO PopulationImpl:105  person # 256
2021-06-22T22:45:02,080  INFO PopulationImpl:105  person # 1024
2021-06-22T22:45:02,090  INFO VehicleUtils:324 adding scenario element for allvehicles container
2021-06-22T22:45:02,090  INFO Counter:67 [VehiclesImpl] added vehicle # 1
2021-06-22T22:45:02,090  INFO Counter:67 [VehiclesImpl] added vehicle # 2
2021-06-22T22:45:02,090  INFO Counter:67 [VehiclesImpl] added vehicle # 4
2021-06-22T22:45:02,090  INFO Counter:67 [VehiclesImpl] added vehicle # 8
2021-06-22T22:45:02,091  INFO Counter:67 [VehiclesImpl] added vehicle # 16
2021-06-22T22:45:02,092  INFO AbstractQNetsimEngine:427 Assigned 214 nodes and 610 links to QSimEngineRunner #0
2021-06-22T22:45:02,118  INFO AbstractQNetsimEngine:365 SIMULATION (QNetsimEngine) AT 00:00:00 : #links=0 #nodes=0
2021-06-22T22:45:02,119  INFO QSim:542 SIMULATION (NEW QSim) AT 00:00:00 : #Veh=1665 lost=0 simT=0.0s realT=0s; (s/r): 0.0
2021-06-22T22:45:02,315  INFO AbstractQNetsimEngine:362 SIMULATION (QNetsimEngine) AT 01:00:00 : #links=0 #nodes=0
2021-06-22T22:45:02,315  INFO QSim:537 SIMULATION (NEW QSim) AT 01:00:00 : #Veh=1665 lost=0 simT=3600.0s realT=0s; (s/r): Infinity
2021-06-22T22:45:02,419  INFO AbstractQNetsimEngine:362 SIMULATION (QNetsimEngine) AT 02:00:00 : #links=0 #nodes=0
2021-06-22T22:45:02,419  INFO QSim:537 SIMULATION (NEW QSim) AT 02:00:00 : #Veh=1665 lost=0 simT=7200.0s realT=0s; (s/r): Infinity
2021-06-22T22:45:02,533  INFO AbstractQNetsimEngine:362 SIMULATION (QNetsimEngine) AT 03:00:00 : #links=0 #nodes=0
2021-06-22T22:45:02,533  INFO QSim:537 SIMULATION (NEW QSim) AT 03:00:00 : #Veh=1665 lost=0 simT=10800.0s realT=0s; (s/r): Infinity
2021-06-22T22:45:02,628  INFO AbstractQNetsimEngine:362 SIMULATION (QNetsimEngine) AT 04:00:00 : #links=0 #nodes=0
2021-06-22T22:45:02,628  INFO QSim:537 SIMULATION (NEW QSim) AT 04:00:00 : #Veh=1665 lost=0 simT=14400.0s realT=0s; (s/r): Infinity
[...]
2021-06-22T22:45:44,840  INFO MobsimListenerManager:53   assigned class org.matsim.core.mobsim.framework.listeners.MobsimListener to interface org.matsim.core.mobsim.framework.listeners.MobsimListener
2021-06-22T22:45:44,840  INFO MobsimListenerManager:53   assigned class org.matsim.core.mobsim.framework.listeners.MobsimListener to interface org.matsim.core.mobsim.framework.listeners.MobsimBeforeCleanupListener
2021-06-22T22:45:44,840  INFO QSimProvider:139 Added MobsimListener class org.matsim.contrib.util.timeprofile.TimeProfileCollector
2021-06-22T22:45:44,842  INFO AbstractQNetsimEngine:427 Assigned 214 nodes and 610 links to QSimEngineRunner #0
2021-06-22T22:45:44,842  INFO AbstractQNetsimEngine:365 SIMULATION (QNetsimEngine) AT 00:00:00 : #links=0 #nodes=0
2021-06-22T22:45:44,842  INFO QSim:537 SIMULATION (NEW QSim) AT 00:00:00 : #Veh=1665 lost=0 simT=0.0s realT=0s; (s/r): 0.0
2021-06-22T22:45:44,985  INFO AbstractQNetsimEngine:365 SIMULATION (QNetsimEngine) AT 01:00:00 : #links=0 #nodes=0
2021-06-22T22:45:44,986  INFO QSim:537 SIMULATION (NEW QSim) AT 01:00:00 : #Veh=1665 lost=0 simT=3600.0s realT=0s; (s/r): Infinity
2021-06-22T22:45:45,072  INFO AbstractQNetsimEngine:365 SIMULATION (QNetsimEngine) AT 02:00:00 : #links=0 #nodes=0
2021-06-22T22:45:45,072  INFO QSim:537 SIMULATION (NEW QSim) AT 02:00:00 : #Veh=1665 lost=0 simT=7200.0s realT=0s; (s/r): Infinity
2021-06-22T22:45:45,160  INFO AbstractQNetsimEngine:365 SIMULATION (QNetsimEngine) AT 03:00:00 : #links=0 #nodes=0
2021-06-22T22:45:45,160  INFO QSim:537 SIMULATION (NEW QSim) AT 03:00:00 : #Veh=1665 lost=0 simT=10800.0s realT=0s; (s/r): Infinity
2021-06-22T22:45:45,252  INFO AbstractQNetsimEngine:365 SIMULATION (QNetsimEngine) AT 04:00:00 : #links=0 #nodes=0
2021-06-22T22:45:45,252  INFO QSim:537 SIMULATION (NEW QSim) AT 04:00:00 : #Veh=1665 lost=0 simT=14400.0s realT=0s; (s/r): Infinity
2021-06-22T22:45:45,338  INFO AbstractQNetsimEngine:365 SIMULATION (QNetsimEngine) AT 05:00:00 : #links=0 #nodes=0
2021-06-22T22:45:45,338  INFO QSim:537 SIMULATION (NEW QSim) AT 05:00:00 : #Veh=1665 lost=0 simT=18000.0s realT=0s; (s/r): Infinity
2021-06-22T22:45:45,426  INFO AbstractQNetsimEngine:365 SIMULATION (QNetsimEngine) AT 06:00:00 : #links=0 #nodes=0
2021-06-22T22:45:45,426  INFO QSim:537 SIMULATION (NEW QSim) AT 06:00:00 : #Veh=1665 lost=0 simT=21600.0s realT=0s; (s/r): Infinity
2021-06-22T22:45:45,529  INFO AbstractQNetsimEngine:365 SIMULATION (QNetsimEngine) AT 07:00:00 : #links=6 #nodes=0
2021-06-22T22:45:45,529  INFO QSim:537 SIMULATION (NEW QSim) AT 07:00:00 : #Veh=1635 lost=0 simT=25200.0s realT=0s; (s/r): Infinity
2021-06-22T22:45:45,657  INFO AbstractQNetsimEngine:365 SIMULATION (QNetsimEngine) AT 08:00:00 : #links=7 #nodes=2
2021-06-22T22:45:45,657  INFO QSim:537 SIMULATION (NEW QSim) AT 08:00:00 : #Veh=1545 lost=0 simT=28800.0s realT=0s; (s/r): Infinity
2021-06-22T22:45:45,711  INFO EventsManagerImpl:134  event # 1048576
2021-06-22T22:45:45,829  INFO AbstractQNetsimEngine:365 SIMULATION (QNetsimEngine) AT 09:00:00 : #links=18 #nodes=4
2021-06-22T22:45:45,829  INFO QSim:537 SIMULATION (NEW QSim) AT 09:00:00 : #Veh=1424 lost=0 simT=32400.0s realT=1s; (s/r): 32400.0
2021-06-22T22:45:46,009  INFO AbstractQNetsimEngine:365 SIMULATION (QNetsimEngine) AT 10:00:00 : #links=19 #nodes=1
2021-06-22T22:45:46,009  INFO QSim:537 SIMULATION (NEW QSim) AT 10:00:00 : #Veh=1271 lost=0 simT=36000.0s realT=1s; (s/r): 36000.0
2021-06-22T22:45:46,194  INFO AbstractQNetsimEngine:365 SIMULATION (QNetsimEngine) AT 11:00:00 : #links=14 #nodes=3
2021-06-22T22:45:46,194  INFO QSim:537 SIMULATION (NEW QSim) AT 11:00:00 : #Veh=1122 lost=0 simT=39600.0s realT=1s; (s/r): 39600.0
2021-06-22T22:45:46,370  INFO AbstractQNetsimEngine:365 SIMULATION (QNetsimEngine) AT 12:00:00 : #links=16 #nodes=1
2021-06-22T22:45:46,370  INFO QSim:537 SIMULATION (NEW QSim) AT 12:00:00 : #Veh=978 lost=0 simT=43200.0s realT=1s; (s/r): 43200.0
2021-06-22T22:45:46,501  INFO AbstractQNetsimEngine:365 SIMULATION (QNetsimEngine) AT 13:00:00 : #links=8 #nodes=1
2021-06-22T22:45:46,501  INFO QSim:537 SIMULATION (NEW QSim) AT 13:00:00 : #Veh=870 lost=0 simT=46800.0s realT=1s; (s/r): 46800.0
2021-06-22T22:45:46,602  INFO AbstractQNetsimEngine:365 SIMULATION (QNetsimEngine) AT 14:00:00 : #links=2 #nodes=0
2021-06-22T22:45:46,602  INFO QSim:537 SIMULATION (NEW QSim) AT 14:00:00 : #Veh=812 lost=0 simT=50400.0s realT=1s; (s/r): 50400.0
2021-06-22T22:45:46,729  INFO AbstractQNetsimEngine:365 SIMULATION (QNetsimEngine) AT 15:00:00 : #links=13 #nodes=2
2021-06-22T22:45:46,729  INFO QSim:537 SIMULATION (NEW QSim) AT 15:00:00 : #Veh=726 lost=0 simT=54000.0s realT=1s; (s/r): 54000.0
2021-06-22T22:45:46,897  INFO AbstractQNetsimEngine:365 SIMULATION (QNetsimEngine) AT 16:00:00 : #links=17 #nodes=0
2021-06-22T22:45:46,897  INFO QSim:537 SIMULATION (NEW QSim) AT 16:00:00 : #Veh=586 lost=0 simT=57600.0s realT=2s; (s/r): 28800.0
2021-06-22T22:45:47,092  INFO AbstractQNetsimEngine:365 SIMULATION (QNetsimEngine) AT 17:00:00 : #links=18 #nodes=1
2021-06-22T22:45:47,092  INFO QSim:537 SIMULATION (NEW QSim) AT 17:00:00 : #Veh=429 lost=0 simT=61200.0s realT=2s; (s/r): 30600.0
2021-06-22T22:45:47,341  INFO AbstractQNetsimEngine:365 SIMULATION (QNetsimEngine) AT 18:00:00 : #links=17 #nodes=2
2021-06-22T22:45:47,341  INFO QSim:537 SIMULATION (NEW QSim) AT 18:00:00 : #Veh=280 lost=0 simT=64800.0s realT=2s; (s/r): 32400.0
2021-06-22T22:45:47,508  INFO AbstractQNetsimEngine:365 SIMULATION (QNetsimEngine) AT 19:00:00 : #links=17 #nodes=0
2021-06-22T22:45:47,508  INFO QSim:537 SIMULATION (NEW QSim) AT 19:00:00 : #Veh=147 lost=0 simT=68400.0s realT=2s; (s/r): 34200.0
2021-06-22T22:45:47,647  INFO AbstractQNetsimEngine:365 SIMULATION (QNetsimEngine) AT 20:00:00 : #links=8 #nodes=2
2021-06-22T22:45:47,647  INFO QSim:537 SIMULATION (NEW QSim) AT 20:00:00 : #Veh=38 lost=0 simT=72000.0s realT=2s; (s/r): 36000.0
2021-06-22T22:45:47,741  INFO AbstractQNetsimEngine:365 SIMULATION (QNetsimEngine) AT 21:00:00 : #links=0 #nodes=0
2021-06-22T22:45:47,741  INFO QSim:537 SIMULATION (NEW QSim) AT 21:00:00 : #Veh=25 lost=0 simT=75600.0s realT=2s; (s/r): 37800.0
2021-06-22T22:45:47,836  INFO AbstractQNetsimEngine:365 SIMULATION (QNetsimEngine) AT 22:00:00 : #links=0 #nodes=0
2021-06-22T22:45:47,836  INFO QSim:537 SIMULATION (NEW QSim) AT 22:00:00 : #Veh=25 lost=0 simT=79200.0s realT=3s; (s/r): 26400.0
2021-06-22T22:45:47,931  INFO AbstractQNetsimEngine:365 SIMULATION (QNetsimEngine) AT 23:00:00 : #links=0 #nodes=0
2021-06-22T22:45:47,931  INFO QSim:537 SIMULATION (NEW QSim) AT 23:00:00 : #Veh=25 lost=0 simT=82800.0s realT=3s; (s/r): 27600.0
2021-06-22T22:45:48,016  INFO AbstractQNetsimEngine:365 SIMULATION (QNetsimEngine) AT 24:00:00 : #links=0 #nodes=0
2021-06-22T22:45:48,016  INFO QSim:537 SIMULATION (NEW QSim) AT 24:00:00 : #Veh=25 lost=0 simT=86400.0s realT=3s; (s/r): 28800.0
2021-06-22T22:45:48,101  INFO AbstractQNetsimEngine:365 SIMULATION (QNetsimEngine) AT 25:00:00 : #links=0 #nodes=0
2021-06-22T22:45:48,101  INFO QSim:537 SIMULATION (NEW QSim) AT 25:00:00 : #Veh=25 lost=0 simT=90000.0s realT=3s; (s/r): 30000.0
2021-06-22T22:45:48,190  INFO AbstractQNetsimEngine:365 SIMULATION (QNetsimEngine) AT 26:00:00 : #links=0 #nodes=0
2021-06-22T22:45:48,190  INFO QSim:537 SIMULATION (NEW QSim) AT 26:00:00 : #Veh=25 lost=0 simT=93600.0s realT=3s; (s/r): 31200.0
2021-06-22T22:45:48,279  INFO AbstractQNetsimEngine:365 SIMULATION (QNetsimEngine) AT 27:00:00 : #links=0 #nodes=0
2021-06-22T22:45:48,279  INFO QSim:537 SIMULATION (NEW QSim) AT 27:00:00 : #Veh=25 lost=0 simT=97200.0s realT=3s; (s/r): 32400.0
2021-06-22T22:45:48,364  INFO AbstractQNetsimEngine:365 SIMULATION (QNetsimEngine) AT 28:00:00 : #links=0 #nodes=0
2021-06-22T22:45:48,364  INFO QSim:537 SIMULATION (NEW QSim) AT 28:00:00 : #Veh=25 lost=0 simT=100800.0s realT=3s; (s/r): 33600.0
2021-06-22T22:45:48,452  INFO AbstractQNetsimEngine:365 SIMULATION (QNetsimEngine) AT 29:00:00 : #links=0 #nodes=0
2021-06-22T22:45:48,452  INFO QSim:537 SIMULATION (NEW QSim) AT 29:00:00 : #Veh=0 lost=0 simT=104400.0s realT=3s; (s/r): 34800.0
2021-06-22T22:45:48,729  INFO Gbl:191 Thread performance: Thread=class org.matsim.core.events.SimStepParallelEventsManagerImpl$ProcessEventsRunnable0  cpu-time=0.968528sec
2021-06-22T22:45:48,729  INFO AbstractController$9:234 ### ITERATION 9 fires after mobsim event
2021-06-22T22:45:48,729  INFO ControlerListenerManagerImpl:248 calling notifyAfterMobsim on org.matsim.analysis.LegTimesControlerListener
2021-06-22T22:45:48,730  INFO LegTimesControlerListener:50 [9] average trip (probably: leg) duration is: 678 seconds = 00:11:18
2021-06-22T22:45:48,730  INFO ControlerListenerManagerImpl:248 calling notifyAfterMobsim on org.matsim.core.events.MobsimScopeEventHandling
2021-06-22T22:45:48,730  INFO EventsManagerImpl:181 removing Event-Handler: org.matsim.contrib.dvrp.passenger.DefaultPassengerEngine
2021-06-22T22:45:48,730  INFO EventsManagerImpl:181 removing Event-Handler: org.matsim.contrib.dvrp.passenger.DefaultPassengerEngine
2021-06-22T22:45:48,730  INFO ControlerListenerManagerImpl:248 calling notifyAfterMobsim on org.matsim.contrib.dvrp.trafficmonitoring.DvrpOfflineTravelTimeEstimator
2021-06-22T22:45:48,738  INFO ControlerListenerManagerImpl:248 calling notifyAfterMobsim on org.matsim.core.scoring.EventsToActivities$1
2021-06-22T22:45:48,740  INFO ControlerListenerManagerImpl:251 [it.9] all ControlerAfterMobsimListeners called.
2021-06-22T22:45:48,740  INFO AbstractController$4:159 ### ITERATION 9 fires scoring event
2021-06-22T22:45:48,740  INFO ControlerListenerManagerImpl:183 calling notifyScoring on org.matsim.core.scoring.PlansScoringImpl
2021-06-22T22:45:48,742  INFO NewScoreAssignerImpl:57 it: 9 msaStart: null
2021-06-22T22:45:48,743  INFO ControlerListenerManagerImpl:194 [it.9] all ControlerScoringListeners called.
2021-06-22T22:45:48,743  INFO AbstractController$5:167 ### ITERATION 9 fires iteration end event
2021-06-22T22:45:48,743  INFO ControlerListenerManagerImpl:160 calling notifyIterationEnds on org.matsim.core.controler.corelisteners.EventsHandlingImpl
2021-06-22T22:45:48,744  INFO EventsManagerImpl:181 removing Event-Handler: org.matsim.core.events.algorithms.EventWriterXML
2021-06-22T22:45:48,744  INFO EventsManagerImpl:181 removing Event-Handler: org.matsim.core.events.algorithms.EventWriterXML
2021-06-22T22:45:48,744  INFO ControlerListenerManagerImpl:160 calling notifyIterationEnds on org.matsim.core.scoring.PlansScoringImpl
2021-06-22T22:45:48,746  INFO ControlerListenerManagerImpl:167 calling notifyIterationEnds on org.matsim.counts.CountsControlerListener
2021-06-22T22:45:48,746  INFO ControlerListenerManagerImpl:167 calling notifyIterationEnds on org.matsim.analysis.ModeStatsControlerListener
2021-06-22T22:45:48,746  INFO ModeStatsControlerListener:105 Mode shares over all 1640.0 trips found. MainModeIdentifier: class org.matsim.core.router.RoutingModeMainModeIdentifier
2021-06-22T22:45:48,746  INFO ModeStatsControlerListener:105 -- mode share of mode taxi = 1.0
2021-06-22T22:45:48,769  INFO ControlerListenerManagerImpl:167 calling notifyIterationEnds on org.matsim.analysis.ScoreStatsControlerListener
2021-06-22T22:45:48,771  INFO ScoreStatsControlerListener:181 -- avg. score of the executed plan of each agent: 138.93980180044255
2021-06-22T22:45:48,771  INFO ScoreStatsControlerListener:182 -- avg. score of the worst plan of each agent: 138.93980180044255
2021-06-22T22:45:48,771  INFO ScoreStatsControlerListener:183 -- avg. of the avg. plan score per agent: 138.93980180044255
2021-06-22T22:45:48,772  INFO ScoreStatsControlerListener:184 -- avg. score of the best plan of each agent: 138.93980180044255
2021-06-22T22:45:48,795  INFO ControlerListenerManagerImpl:167 calling notifyIterationEnds on org.matsim.analysis.IterationTravelStatsControlerListener
2021-06-22T22:45:48,796  INFO TravelDistanceStats:143 -- average leg distance per plan (executed plans only): 4110.137195121952 meters
2021-06-22T22:45:48,796  INFO TravelDistanceStats:144 average leg distance per Person (executed plans only): 4110.137195121952 meters (statistic on all 1640 legs which have a finite distance)
2021-06-22T22:45:48,796  INFO TravelDistanceStats:145 -- average trip distance per plan (executed plans only): 4110.137195121952 meters
2021-06-22T22:45:48,797  INFO TravelDistanceStats:146 average trip distance per Person (executed plans only): 4110.137195121952 meters (statistic on all 1640 trips which have a finite distance)
2021-06-22T22:45:48,797  INFO TravelDistanceStats:147 (TravelDistanceStats takes an average over all legs where the simulation reports travelled (network) distances
2021-06-22T22:45:48,797  INFO TravelDistanceStats:148 (and teleported legs whose route contains a distance.)
2021-06-22T22:45:48,988  INFO ControlerListenerManagerImpl:167 calling notifyIterationEnds on org.matsim.analysis.LegHistogramListener
2021-06-22T22:45:48,991  INFO LegHistogramListener:72 number of legs:	1640	100%
2021-06-22T22:45:48,991  INFO LegHistogramListener:79 number of taxi legs:	1640	100.0%
2021-06-22T22:45:49,108  INFO ControlerListenerManagerImpl:167 calling notifyIterationEnds on org.matsim.analysis.LinkStatsControlerListener
2021-06-22T22:45:49,109  INFO ControlerListenerManagerImpl:171 [it.9] all ControlerIterationEndsListeners called.
2021-06-22T22:45:49,168  INFO AbstractController:181 ### ITERATION 9 ENDS
2021-06-22T22:45:49,168  INFO AbstractController:182 ###################################################
2021-06-22T22:45:49,168  INFO MatsimRuntimeModifications:79 S H U T D O W N   ---   start shutdown.
2021-06-22T22:45:49,168  INFO ControlerListenerManagerImpl:121 calling notifyShutdown on org.matsim.core.controler.corelisteners.EventsHandlingImpl
2021-06-22T22:45:49,168  INFO ControlerListenerManagerImpl:121 calling notifyShutdown on org.matsim.core.controler.corelisteners.DumpDataAtEndImpl
2021-06-22T22:45:49,172  INFO Counter:67 [PopulationWriter] dumped person # 1
2021-06-22T22:45:49,172  INFO Counter:67 [PopulationWriter] dumped person # 2
2021-06-22T22:45:49,172  INFO Counter:67 [PopulationWriter] dumped person # 4
2021-06-22T22:45:49,172  INFO Counter:67 [PopulationWriter] dumped person # 8
2021-06-22T22:45:49,172  INFO Counter:67 [PopulationWriter] dumped person # 16
2021-06-22T22:45:49,172  INFO Counter:67 [PopulationWriter] dumped person # 32
2021-06-22T22:45:49,173  INFO Counter:67 [PopulationWriter] dumped person # 64
2021-06-22T22:45:49,175  INFO Counter:67 [PopulationWriter] dumped person # 128
2021-06-22T22:45:49,177  INFO Counter:67 [PopulationWriter] dumped person # 256
2021-06-22T22:45:49,183  INFO Counter:67 [PopulationWriter] dumped person # 512
2021-06-22T22:45:49,192  INFO Counter:67 [PopulationWriter] dumped person # 1024
2021-06-22T22:45:49,212  INFO PopulationWriter:144 Population written to: output/mielec_taxi_assignment/output_plans.xml.gz
2021-06-22T22:45:49,212  INFO Counter:74 [PopulationWriter] dumped person # 1640
2021-06-22T22:45:49,217  INFO NetworkWriter:69 Writing network to file: output/mielec_taxi_assignment/output_network.xml.gz...
2021-06-22T22:45:49,236  INFO NetworkWriter:72 done.
2021-06-22T22:45:49,245  INFO Config:572 setting context to [file:/Users/hidenaga/work/matsim-maas/]
2021-06-22T22:45:49,251  INFO Config:572 setting context to [file:/Users/hidenaga/work/matsim-maas/]
2021-06-22T22:45:49,254  INFO Config:572 setting context to [file:/Users/hidenaga/work/matsim-maas/]
2021-06-22T22:45:49,258  INFO Config:572 setting context to [file:/Users/hidenaga/work/matsim-maas/]
2021-06-22T22:45:49,272  INFO Config:572 setting context to [file:/Users/hidenaga/work/matsim-maas/]
2021-06-22T22:45:49,275  INFO Config:572 setting context to [file:/Users/hidenaga/work/matsim-maas/]
2021-06-22T22:45:49,277  INFO Config:572 setting context to [file:/Users/hidenaga/work/matsim-maas/]
2021-06-22T22:45:49,280  INFO Config:572 setting context to [file:/Users/hidenaga/work/matsim-maas/]
2021-06-22T22:45:49,286  INFO Config:572 setting context to [file:/Users/hidenaga/work/matsim-maas/]
2021-06-22T22:45:49,288  INFO Config:572 setting context to [file:/Users/hidenaga/work/matsim-maas/]
2021-06-22T22:45:49,290  INFO Config:572 setting context to [file:/Users/hidenaga/work/matsim-maas/]
2021-06-22T22:45:49,295  INFO Config:572 setting context to [file:/Users/hidenaga/work/matsim-maas/]
2021-06-22T22:45:49,301  INFO Config:572 setting context to [file:/Users/hidenaga/work/matsim-maas/]
2021-06-22T22:45:49,303  INFO Config:572 setting context to [file:/Users/hidenaga/work/matsim-maas/]
2021-06-22T22:45:49,306  INFO Config:572 setting context to [file:/Users/hidenaga/work/matsim-maas/]
2021-06-22T22:45:49,309  INFO Config:572 setting context to [file:/Users/hidenaga/work/matsim-maas/]
2021-06-22T22:45:49,327  INFO Config:572 setting context to [file:/Users/hidenaga/work/matsim-maas/]
2021-06-22T22:45:49,330  INFO Config:572 setting context to [file:/Users/hidenaga/work/matsim-maas/]
2021-06-22T22:45:49,336  INFO Config:572 setting context to [file:/Users/hidenaga/work/matsim-maas/]
2021-06-22T22:45:49,339  INFO Config:572 setting context to [file:/Users/hidenaga/work/matsim-maas/]
2021-06-22T22:45:49,356  INFO Config:572 setting context to [file:/Users/hidenaga/work/matsim-maas/]
2021-06-22T22:45:49,359  INFO Config:572 setting context to [file:/Users/hidenaga/work/matsim-maas/]
2021-06-22T22:45:49,363  INFO Config:572 setting context to [file:/Users/hidenaga/work/matsim-maas/]
2021-06-22T22:45:49,366  INFO Config:572 setting context to [file:/Users/hidenaga/work/matsim-maas/]
2021-06-22T22:45:49,369  INFO Config:572 setting context to [file:/Users/hidenaga/work/matsim-maas/]
2021-06-22T22:45:49,372  INFO Config:572 setting context to [file:/Users/hidenaga/work/matsim-maas/]
2021-06-22T22:45:49,374  INFO Config:572 setting context to [file:/Users/hidenaga/work/matsim-maas/]
2021-06-22T22:45:49,376  INFO Config:572 setting context to [file:/Users/hidenaga/work/matsim-maas/]
2021-06-22T22:45:49,386  INFO MatsimVehicleWriter:54 about to write vehicles to: output/mielec_taxi_assignment/output_vehicles.xml.gz
2021-06-22T22:45:49,387  INFO VehicleWriterV2:63 about to write vehicles to: output/mielec_taxi_assignment/output_vehicles.xml.gz
2021-06-22T22:45:49,414  INFO MatsimVehicleWriter:54 about to write vehicles to: output/mielec_taxi_assignment/output_allVehicles.xml.gz
2021-06-22T22:45:49,420  INFO VehicleWriterV2:63 about to write vehicles to: output/mielec_taxi_assignment/output_allVehicles.xml.gz
2021-06-22T22:45:49,425  INFO HouseholdsWriterV10:66 about to write  households to: output/mielec_taxi_assignment/output_households.xml.gz
2021-06-22T22:45:49,427  INFO Counter:74 [HouseholdsWriter] wrote household # 0
2021-06-22T22:45:49,449  INFO ControlerListenerManagerImpl:126 calling notifyShutdown on org.matsim.analysis.ScoreStatsControlerListener
2021-06-22T22:45:49,450  INFO ControlerListenerManagerImpl:126 calling notifyShutdown on org.matsim.analysis.IterationTravelStatsControlerListener
2021-06-22T22:45:49,450  INFO IterationTravelStatsControlerListener:104 Writing all Person and Attributes to personscsv
2021-06-22T22:45:49,493  INFO IterationTravelStatsControlerListener:148 ...done
2021-06-22T22:45:49,493  INFO ControlerListenerManagerImpl:126 calling notifyShutdown on org.matsim.contrib.taxi.util.stats.TaxiStatsDumper
2021-06-22T22:45:49,493  INFO ControlerListenerManagerImpl:126 calling notifyShutdown on org.matsim.contrib.dvrp.fleet.FleetControlerListener
2021-06-22T22:45:49,496  INFO ControlerListenerManagerImpl:129 all ControlerShutdownListeners called.
2021-06-22T22:45:49,496  INFO MatsimRuntimeModifications:102 S H U T D O W N   ---   shutdown completed.
2021-06-22T22:45:49,496  INFO OutputDirectoryLogging:170 closing the logfile, i.e. messages sent to the logger after this message are not written to the logfile.
